data_lalanine8_200k
_audit_creation_date               2025-06-16
_audit_creation_method
;
Olex2 1.5
(compiled 2025.05.31 svn.r86d253d1 for OlexSys, GUI svn.r7254)
;
_audit_contact_author_address      ?
_audit_contact_author_email        ?
_audit_contact_author_name         ''
_audit_contact_author_phone        ?
_publ_contact_author_id_orcid      ?
_publ_section_references
;
Bourhis, L.J., Dolomanov, O.V., Gildea, R.J., Howard, J.A.K., Puschmann, H.
 (2015). Acta Cryst. A71, 59-75.

Dolomanov, O.V., Bourhis, L.J., Gildea, R.J, Howard, J.A.K. & Puschmann, H.
 (2009), J. Appl. Cryst. 42, 339-341.

Kleemiss, F., Dolomanov, O.V., Bodensteiner, M., Peyerimhoff, N., Midgley, L.,
Bourhis, L.J., Genoni, A., Malaspina, L.A., Jayatilaka, D., Spencer, J.L.,
White, F., Grundkoetter-Stock, B., Steinhauer, S., Lentz, D., Puschmann, H.,
Grabowsky, S. (2021), Chem. Sci., 12, 1675-1692.
;
_chemical_formula_moiety           'C3 H7 N O2'
_chemical_formula_sum              'C3 H7 N O2'
_chemical_formula_weight           86.104
_chemical_absolute_configuration   unk
loop_
  _atom_type_symbol
  _atom_type_scat_dispersion_real
  _atom_type_scat_dispersion_imag
  _atom_type_scat_source
  _atom_type_scat_dispersion_source
 C -0.00220 0.00010 'NoSpherA2: Chem.Sci. 2021, DOI:10.1039/D0SC05526C'
 'Brennan, Cowan, Rev. Sci. Instrum., 1992, 63, 850'
 H 0.00000 0.00000 'NoSpherA2: Chem.Sci. 2021, DOI:10.1039/D0SC05526C'
 'Brennan, Cowan, Rev. Sci. Instrum., 1992, 63, 850'
 N -0.00360 0.00030 'NoSpherA2: Chem.Sci. 2021, DOI:10.1039/D0SC05526C'
 'Brennan, Cowan, Rev. Sci. Instrum., 1992, 63, 850'
 O -0.00470 0.00060 'NoSpherA2: Chem.Sci. 2021, DOI:10.1039/D0SC05526C'
 'Brennan, Cowan, Rev. Sci. Instrum., 1992, 63, 850'

_space_group_crystal_system        'orthorhombic'
_space_group_IT_number             19
_space_group_name_H-M_alt          'P 21 21 21'
_space_group_name_Hall             ' P 2ac 2ab'
loop_
  _space_group_symop_id
  _space_group_symop_operation_xyz
 1 x,y,z
 2 x+1/2,-y+1/2,-z
 3 -x,y+1/2,-z+1/2
 4 -x+1/2,-y,z+1/2

_symmetry_Int_Tables_number        19
_cell_length_a                     5.8030(3)
_cell_length_b                     6.0038(3)
_cell_length_c                     12.3330(5)
_cell_angle_alpha                  90
_cell_angle_beta                   90
_cell_angle_gamma                  90
_cell_volume                       429.69(3)
_cell_formula_units_Z              4
_cell_measurement_reflns_used      6951
_cell_measurement_temperature      200
_cell_measurement_theta_max        18.5530
_cell_measurement_theta_min        1.2270
_exptl_absorpt_coefficient_mu      0.027
_exptl_crystal_colour              colourless
_exptl_crystal_colour_primary      colourless
_exptl_crystal_density_diffrn      1.331
_exptl_crystal_description         block
_exptl_crystal_F_000               181.935
_diffrn_reflns_av_R_equivalents    0.0000
_diffrn_reflns_av_unetI/netI       0.0349
_diffrn_reflns_Laue_measured_fraction_full  1.0000
_diffrn_reflns_Laue_measured_fraction_max  1.0000
_diffrn_reflns_limit_h_max         14
_diffrn_reflns_limit_h_min         0
_diffrn_reflns_limit_k_max         15
_diffrn_reflns_limit_k_min         0
_diffrn_reflns_limit_l_max         31
_diffrn_reflns_limit_l_min         -31
_diffrn_reflns_number              7591
_diffrn_reflns_point_group_measured_fraction_full  1.0000
_diffrn_reflns_point_group_measured_fraction_max  1.0000
_diffrn_reflns_theta_full          8.5609
_diffrn_reflns_theta_max           18.55
_diffrn_reflns_theta_min           1.15
_diffrn_ambient_temperature        473.15
_diffrn_measured_fraction_theta_full  1.0000
_diffrn_measured_fraction_theta_max  1.0000
_diffrn_measurement_device_type   
 'esperanto-CrysAlisPro-abstract goniometer imported esperanto images'
_diffrn_measurement_method         '\w scans'
_diffrn_radiation_type             synchrotron
_diffrn_radiation_wavelength       0.24810
_reflns_Friedel_coverage           1.000
_reflns_limit_h_max                14
_reflns_limit_h_min                -14
_reflns_limit_k_max                15
_reflns_limit_k_min                -15
_reflns_limit_l_max                31
_reflns_limit_l_min                -31
_reflns_number_gt                  6710
_reflns_number_total               7591
_reflns_threshold_expression       I>=2u(I)
_computing_cell_refinement         'CrysAlisPro 1.171.42.89a (Rigaku OD, 2023)'
_computing_data_collection         'CrysAlisPro 1.171.42.89a (Rigaku OD, 2023)'
_computing_data_reduction          'CrysAlisPro 1.171.42.89a (Rigaku OD, 2023)'
_computing_molecular_graphics      'Olex2 1.5 (Dolomanov et al., 2009)'
_computing_publication_material    'Olex2 1.5 (Dolomanov et al., 2009)'
_computing_structure_refinement    'olex2.refine 1.5 (Bourhis et al., 2015)'
_refine_diff_density_max           0.3403
_refine_diff_density_min           -0.1721
_refine_diff_density_rms           0.0394
_refine_ls_abs_structure_details  
 'Hooft, R.W.W., Straver, L.H., Spek, A.L. (2010). J. Appl. Cryst., 43, 665-668.'
_refine_ls_abs_structure_Flack     -1.9(15)
_refine_ls_d_res_high              0.3900
_refine_ls_d_res_low               6.1665
_refine_ls_goodness_of_fit_ref     1.1720
_refine_ls_hydrogen_treatment      refall
_refine_ls_matrix_type             full
_refine_ls_number_constraints      0
_refine_ls_number_parameters       118
_refine_ls_number_reflns           7591
_refine_ls_number_restraints       0
_refine_ls_R_factor_all            0.0343
_refine_ls_R_factor_gt             0.0284
_refine_ls_restrained_S_all        1.1720
_refine_ls_shift/su_max            -0.0004
_refine_ls_shift/su_mean           0.0001
_refine_ls_structure_factor_coef   Fsqd
_refine_ls_weighting_details      
 'w=1/[\s^2^(Fo^2^)+(0.0000P)^2^] where P=(Fo^2^+2Fc^2^)/3'
_refine_ls_weighting_scheme        calc
_refine_ls_wR_factor_gt            0.0583
_refine_ls_wR_factor_ref           0.0598
_olex2_refinement_description
;
;
_olex2_refine_details
;
Refinement using NoSpherA2, an implementation of
NOn-SPHERical Atom-form-factors in Olex2.
Please cite:
F. Kleemiss et al. Chem. Sci. DOI 10.1039/D0SC05526C - 2021
NoSpherA2 implementation of HAR makes use of
tailor-made aspherical atomic form factors calculated
on-the-fly from a Hirshfeld-partitioned electron density (ED) - not from
spherical-atom form factors.

The ED is calculated from a gaussian basis set single determinant SCF
wavefunction - either Hartree-Fock or DFT using selected funtionals
- for a fragment of the crystal.
This fragment can be embedded in an electrostatic crystal field by employing cluster charges
or modelled using implicit solvation models, depending on the software used.
The following options were used:
   SOFTWARE:       ORCA 6.0
   PARTITIONING:   NoSpherA2
   INT ACCURACY:   Normal
   METHOD:         r2SCAN
   BASIS SET:      cc-pVTZ
   CHARGE:         0
   MULTIPLICITY:   1
   DATE:           2025-06-16_10-37-48
;
loop_
  _atom_site_label
  _atom_site_type_symbol
  _atom_site_fract_x
  _atom_site_fract_y
  _atom_site_fract_z
  _atom_site_U_iso_or_equiv
  _atom_site_adp_type
  _atom_site_occupancy
  _atom_site_refinement_flags_posn
 O001 O 0.23881(2) 0.55336(3) 0.684551(15) 0.02283(3) Uani 1.000000 .
 O002 O 0.37357(3) 0.27199(3) 0.584169(15) 0.02302(3) Uani 1.000000 .
 N003 N 0.81539(2) 0.34801(3) 0.637904(14) 0.01743(2) Uani 1.000000 .
 H00a H 0.7976(13) 0.2980(11) 0.5596(6) 0.0327(14) Uani 1.000000 .
 H00b H 0.9807(11) 0.4128(11) 0.6494(5) 0.0331(13) Uani 1.000000 .
 H00c H 0.7861(11) 0.2217(12) 0.6902(6) 0.0349(14) Uani 1.000000 .
 C004 C 0.39901(2) 0.44196(3) 0.641148(13) 0.01544(2) Uani 1.000000 .
 C005 C 0.64492(2) 0.52756(3) 0.661276(13) 0.01540(2) Uani 1.000000 .
 H005 H 0.6597(10) 0.5662(11) 0.7469(4) 0.0280(11) Uani 1.000000 .
 C006 C 0.69670(4) 0.73130(4) 0.59130(2) 0.02331(3) Uani 1.000000 .
 H00d H 0.8677(13) 0.7944(10) 0.6081(7) 0.0507(19) Uani 1.000000 .
 H00e H 0.6947(13) 0.6848(12) 0.5077(6) 0.0433(16) Uani 1.000000 .
 H00f H 0.5692(16) 0.8626(10) 0.6039(6) 0.0452(18) Uani 1.000000 .

loop_
  _atom_site_aniso_label
  _atom_site_aniso_U_11
  _atom_site_aniso_U_22
  _atom_site_aniso_U_33
  _atom_site_aniso_U_12
  _atom_site_aniso_U_13
  _atom_site_aniso_U_23
 O001 0.01158(4) 0.03026(7) 0.02666(6) 0.00069(4) 0.00146(4) -0.00703(6)
 O002 0.01757(5) 0.02785(6) 0.02363(6) -0.00338(4) -0.00190(4) -0.00833(5)
 N003 0.01180(3) 0.02162(5) 0.01886(5) 0.00073(4) -0.00005(4) -0.00093(4)
 H00a 0.034(4) 0.034(3) 0.030(3) 0.006(3) -0.002(3) -0.008(3)
 H00b 0.027(3) 0.047(3) 0.026(3) 0.010(3) -0.002(3) -0.002(3)
 H00c 0.026(3) 0.033(3) 0.046(4) -0.002(3) 0.003(3) 0.002(3)
 C004 0.01080(4) 0.02119(5) 0.01433(4) -0.00133(4) -0.00007(3) -0.00077(4)
 C005 0.01100(4) 0.02009(5) 0.01512(4) -0.00135(4) -0.00014(3) -0.00163(4)
 H005 0.024(3) 0.041(3) 0.018(2) -0.001(2) 0.004(2) -0.007(2)
 C006 0.01781(6) 0.02265(7) 0.02946(9) -0.00231(5) 0.00089(6) 0.00463(6)
 H00d 0.038(4) 0.041(3) 0.073(5) -0.020(3) -0.009(4) 0.012(4)
 H00e 0.044(4) 0.047(4) 0.039(3) -0.005(3) 0.007(3) 0.001(3)
 H00f 0.049(4) 0.031(3) 0.055(5) 0.009(3) 0.004(4) 0.002(3)

loop_
  _geom_bond_atom_site_label_1
  _geom_bond_atom_site_label_2
  _geom_bond_distance
  _geom_bond_site_symmetry_2
  _geom_bond_publ_flag
 O001 C004 1.2641(2) . ?
 O002 C004 1.2478(2) . ?
 N003 H00a 1.017(7) . ?
 N003 H00b 1.045(7) . ?
 N003 H00c 1.010(7) . ?
 N003 C005 1.4912(2) . ?
 C004 C005 1.5369(2) . ?
 C005 H005 1.085(5) . ?
 C005 C006 1.5269(3) . ?
 C006 H00d 1.082(7) . ?
 C006 H00e 1.068(7) . ?
 C006 H00f 1.092(7) . ?

loop_
  _geom_angle_atom_site_label_1
  _geom_angle_atom_site_label_2
  _geom_angle_atom_site_label_3
  _geom_angle
  _geom_angle_site_symmetry_1
  _geom_angle_site_symmetry_3
  _geom_angle_publ_flag
 H00b N003 H00a 109.4(5) . . ?
 H00c N003 H00a 111.6(6) . . ?
 H00c N003 H00b 110.3(5) . . ?
 C005 N003 H00a 109.3(4) . . ?
 C005 N003 H00b 108.3(3) . . ?
 C005 N003 H00c 107.9(4) . . ?
 O002 C004 O001 125.746(16) . . ?
 C005 C004 O001 115.941(15) . . ?
 C005 C004 O002 118.313(15) . . ?
 C004 C005 N003 110.059(14) . . ?
 H005 C005 N003 106.9(3) . . ?
 H005 C005 C004 107.6(3) . . ?
 C006 C005 N003 109.836(15) . . ?
 C006 C005 C004 111.059(15) . . ?
 C006 C005 H005 111.3(3) . . ?
 H00d C006 C005 110.7(4) . . ?
 H00e C006 C005 109.5(4) . . ?
 H00e C006 H00d 106.6(6) . . ?
 H00f C006 C005 111.4(4) . . ?
 H00f C006 H00d 110.0(6) . . ?
 H00f C006 H00e 108.6(6) . . ?

loop_
  _geom_torsion_atom_site_label_1
  _geom_torsion_atom_site_label_2
  _geom_torsion_atom_site_label_3
  _geom_torsion_atom_site_label_4
  _geom_torsion
  _geom_torsion_site_symmetry_1
  _geom_torsion_site_symmetry_2
  _geom_torsion_site_symmetry_3
  _geom_torsion_site_symmetry_4
  _geom_torsion_publ_flag
 O001 C004 C005 N003 161.729(18) . . . . ?
 O001 C004 C005 C006 -76.42(2) . . . . ?
 O002 C004 C005 N003 -18.498(19) . . . . ?
 O002 C004 C005 C006 103.35(2) . . . . ?

loop_
  _diffrn_refln_index_h
  _diffrn_refln_index_k
  _diffrn_refln_index_l
  _diffrn_refln_intensity_net
  _diffrn_refln_intensity_u
  _diffrn_refln_scale_group_code
 0 0 2 3933.21 141.93 1
 0 0 4 99981.78 3319.33 1
 0 0 6 1707.07 62.97 1
 0 0 8 546.43 20.79 1
 0 0 10 87.17 3.63 1
 0 0 12 2204.38 85.83 1
 0 0 14 736.71 30.36 1
 0 0 16 226.19 10.95 1
 0 0 18 1163.52 44.29 1
 0 0 20 12.84 2.71 1
 0 0 22 272.18 10.63 1
 0 0 24 3.36 1.99 1
 0 0 26 9.74 1.84 1
 0 0 28 0.48 1.92 1
 0 0 30 3.41 2.13 1
 0 1 1 5570.42 190.79 1
 0 1 2 99999 3419.93 1
 0 1 3 1797.71 51.94 1
 0 1 4 29931.02 943.26 1
 0 1 5 5412.68 161.21 1
 0 1 6 852.27 25.81 1
 0 1 7 391.19 11.64 1
 0 1 8 5710.33 177.15 1
 0 1 9 56.35 1.93 1
 0 1 10 504.89 16.23 1
 0 1 11 1065.15 33.49 1
 0 1 12 452.1 13.52 1
 0 1 13 617.58 18.79 1
 0 1 14 37.21 1.47 1
 0 1 15 678.76 20.85 1
 0 1 16 251.25 9.31 1
 0 1 17 264.95 8.26 1
 0 1 18 2.77 1 1
 0 1 19 196.94 6.59 1
 0 1 20 131.41 4.41 1
 0 1 21 32.6 2.2 1
 0 1 22 17.85 1.41 1
 0 1 23 21.09 1.59 1
 0 1 24 10.61 1.69 1
 0 1 25 7.95 1.57 1
 0 1 26 6.76 1.32 1
 0 1 27 -0.7 5.49 1
 0 1 28 3.84 1.36 1
 0 1 29 5.36 1.41 1
 0 1 30 0.81 1.61 1
 0 1 31 5.46 1.85 1
 0 2 0 667.9 22.47 1
 0 2 1 808.15 23.15 1
 0 2 2 30574.79 934.94 1
 0 2 3 10783.96 342.07 1
 0 2 4 1028.95 34.02 1
 0 2 5 2075.85 59.76 1
 0 2 6 32142.41 1012.88 1
 0 2 7 2847.06 88.91 1
 0 2 8 58.72 1.82 1
 0 2 9 3422.2 101.36 1
 0 2 10 2820.43 83.97 1
 0 2 11 58.71 2.05 1
 0 2 12 296.15 9 1
 0 2 13 1809.69 55.51 1
 0 2 14 59.87 2.13 1
 0 2 15 473.59 15.41 1
 0 2 16 129.02 4.17 1
 0 2 17 302.34 10.71 1
 0 2 18 192.5 6.59 1
 0 2 19 189.47 7.56 1
 0 2 20 13.77 1.29 1
 0 2 21 31.12 1.64 1
 0 2 22 55.77 2.45 1
 0 2 23 63.77 2.48 1
 0 2 24 31.61 1.72 1
 0 2 25 0.56 1.39 1
 0 2 26 2.32 1.27 1
 0 2 27 33.67 1.71 1
 0 2 28 2.38 1.37 1
 0 2 29 3.25 1.45 1
 0 2 30 4.72 1.52 1
 0 2 31 10.63 1.72 1
 0 3 1 386.13 12.91 1
 0 3 2 24.29 0.9 1
 0 3 3 602.94 19.13 1
 0 3 4 7847.27 229.38 1
 0 3 5 2314.36 78.58 1
 0 3 6 743.52 22.88 1
 0 3 7 3181.72 97.62 1
 0 3 8 987.86 29.94 1
 0 3 9 880.45 27.55 1
 0 3 10 348.2 10.62 1
 0 3 11 2418.7 69.91 1
 0 3 12 164.04 5.66 1
 0 3 13 13.55 0.96 1
 0 3 14 36.62 1.63 1
 0 3 15 223.21 7.36 1
 0 3 16 339.07 11.52 1
 0 3 17 170.76 7.64 1
 0 3 18 28.93 1.6 1
 0 3 19 2.66 1.09 1
 0 3 20 129.61 5.03 1
 0 3 21 110.05 4.01 1
 0 3 22 7.09 1.49 1
 0 3 23 2.84 1.42 1
 0 3 24 24.97 2.3 1
 0 3 25 65.65 2.86 1
 0 3 26 3.11 1.28 1
 0 3 27 1.26 1.3 1
 0 3 28 -0.67 5.6 1
 0 3 29 20.39 1.66 1
 0 3 30 7.24 1.69 1
 0 3 31 4.36 1.78 1
 0 4 0 6618.71 302.08 1
 0 4 1 4298.07 127.93 1
 0 4 2 173.06 5.44 1
 0 4 3 -0.09 2.24 1
 0 4 4 509.19 17.39 1
 0 4 5 187.17 6.12 1
 0 4 6 1074.93 36.55 1
 0 4 7 1002.62 29.86 1
 0 4 8 1572.64 47.15 1
 0 4 9 804.11 23.37 1
 0 4 10 792.23 24.52 1
 0 4 11 103.98 3.62 1
 0 4 12 1874.64 64.14 1
 0 4 13 267.08 8.76 1
 0 4 14 80.65 3.16 1
 0 4 15 87.14 3.41 1
 0 4 16 451.96 14.65 1
 0 4 17 3.66 1.17 1
 0 4 18 0.82 1.14 1
 0 4 19 65.28 2.97 1
 0 4 20 7.78 1.25 1
 0 4 21 5.27 1.19 1
 0 4 22 6.78 1.42 1
 0 4 23 28.27 2.07 1
 0 4 24 40.29 2.29 1
 0 4 25 2.33 1.3 1
 0 4 26 7.62 1.46 1
 0 4 27 14.98 1.45 1
 0 4 28 26.13 2.22 1
 0 4 29 2.88 1.57 1
 0 4 30 0.81 2.31 1
 0 5 1 347.28 10.98 1
 0 5 2 1125.43 35.24 1
 0 5 3 2319.96 74.05 1
 0 5 4 413.04 13.34 1
 0 5 5 778.34 23.31 1
 0 5 6 16.35 0.86 1
 0 5 7 120.09 3.72 1
 0 5 8 129.92 4.14 1
 0 5 9 214.6 6.84 1
 0 5 10 507 16.04 1
 0 5 11 125.63 4.02 1
 0 5 12 4.14 0.93 1
 0 5 13 84.34 4.1 1
 0 5 14 293.73 9.63 1
 0 5 15 44.59 1.97 1
 0 5 16 23.82 1.48 1
 0 5 17 76.14 2.81 1
 0 5 18 16.13 1.65 1
 0 5 19 5.99 1.24 1
 0 5 20 4.02 1.26 1
 0 5 21 1.49 1.78 1
 0 5 22 19.34 1.68 1
 0 5 23 5.78 1.35 1
 0 5 24 13.85 1.41 1
 0 5 25 -0.08 5.44 1
 0 5 26 20.99 1.59 1
 0 5 27 3.82 1.44 1
 0 5 28 2.71 1.58 1
 0 5 29 -4.83 8.76 1
 0 6 0 462.3 16.34 1
 0 6 1 730.01 21.27 1
 0 6 2 96.27 2.99 1
 0 6 3 135.97 4.77 1
 0 6 4 52.46 2 1
 0 6 5 443.07 14.76 1
 0 6 6 728.93 22.36 1
 0 6 7 444.23 13.77 1
 0 6 8 139.79 4.88 1
 0 6 9 51.01 2.07 1
 0 6 10 536.56 16.32 1
 0 6 11 -0.37 3.66 1
 0 6 12 189.55 6.04 1
 0 6 13 187.66 6.23 1
 0 6 14 45.09 1.91 1
 0 6 15 66.66 2.6 1
 0 6 16 36.51 1.88 1
 0 6 17 52.79 2.71 1
 0 6 18 52.3 3.01 1
 0 6 19 10.21 1.34 1
 0 6 20 3.08 1.52 1
 0 6 21 9.27 1.54 1
 0 6 22 47.57 2.12 1
 0 6 23 2.08 1.45 1
 0 6 24 2.23 1.32 1
 0 6 25 2.04 1.48 1
 0 6 26 0.89 1.42 1
 0 6 27 4.91 1.81 1
 0 6 28 6.05 1.62 1
 0 6 29 6.52 2.17 1
 0 7 1 6.95 0.79 1
 0 7 2 430.24 13.14 1
 0 7 3 112.95 3.63 1
 0 7 4 184.49 5.85 1
 0 7 5 315.12 9.79 1
 0 7 6 50.66 2.13 1
 0 7 7 62.66 2.22 1
 0 7 8 273.59 8.54 1
 0 7 9 181.35 7.01 1
 0 7 10 333.37 10.3 1
 0 7 11 311.49 11.95 1
 0 7 12 42.3 1.85 1
 0 7 13 0.08 1.02 1
 0 7 14 62.45 2.4 1
 0 7 15 110.17 4.01 1
 0 7 16 33.54 1.91 1
 0 7 17 10.94 1.43 1
 0 7 18 5.05 1.67 1
 0 7 19 16.33 1.6 1
 0 7 20 48.18 2.07 1
 0 7 21 22.42 1.64 1
 0 7 22 0.32 1.66 1
 0 7 23 0.41 1.49 1
 0 7 24 1.62 1.43 1
 0 7 25 31.89 2.72 1
 0 7 26 2.54 1.57 1
 0 7 27 2.4 1.54 1
 0 7 28 7.25 1.93 1
 0 8 0 13.79 1.38 1
 0 8 1 11.07 0.96 1
 0 8 2 126.94 4.11 1
 0 8 3 51.48 2.29 1
 0 8 4 3.32 0.9 1
 0 8 5 13.27 1.03 1
 0 8 6 377.29 11.66 1
 0 8 7 218.08 6.91 1
 0 8 8 4.39 1.06 1
 0 8 9 190.09 6.57 1
 0 8 10 136.62 4.54 1
 0 8 11 72.74 2.6 1
 0 8 12 42.96 1.88 1
 0 8 13 136.71 4.82 1
 0 8 14 17.96 3.04 1
 0 8 15 1.39 1.15 1
 0 8 16 76.35 2.99 1
 0 8 17 34.32 2.07 1
 0 8 18 11.09 1.33 1
 0 8 19 19.39 1.56 1
 0 8 20 0.71 1.58 1
 0 8 21 11.09 2.05 1
 0 8 22 2.5 1.35 1
 0 8 23 39.92 2.21 1
 0 8 24 20.02 1.8 1
 0 8 25 1.88 1.87 1
 0 8 26 2.56 2.41 1
 0 8 27 18.04 2.97 1
 0 9 1 6.7 1.05 1
 0 9 2 51.39 2.05 1
 0 9 3 26.66 1.45 1
 0 9 4 564.08 17.99 1
 0 9 5 36.57 1.67 1
 0 9 6 48.27 1.99 1
 0 9 7 -0.33 4.46 1
 0 9 8 453.91 14.1 1
 0 9 9 52.88 2.22 1
 0 9 10 120.24 4.28 1
 0 9 11 26.66 1.82 1
 0 9 12 57.39 2.25 1
 0 9 13 9.92 1.28 1
 0 9 14 104.98 4.44 1
 0 9 15 30.35 2.23 1
 0 9 16 8.67 1.33 1
 0 9 17 2.19 1.24 1
 0 9 18 3.62 1.49 1
 0 9 19 33.83 2.13 1
 0 9 20 12.64 1.76 1
 0 9 21 10.28 1.39 1
 0 9 22 21.81 2.12 1
 0 9 23 12.8 1.78 1
 0 9 24 6.02 2.09 1
 0 9 25 5.92 1.95 1
 0 10 0 522.74 19.93 1
 0 10 1 77.65 2.82 1
 0 10 2 29 1.59 1
 0 10 3 4.43 1.19 1
 0 10 4 273.55 8.84 1
 0 10 5 100.06 3.55 1
 0 10 6 50.97 2.13 1
 0 10 7 8.54 1.9 1
 0 10 8 37.77 2.06 1
 0 10 9 30.38 1.77 1
 0 10 10 7.91 1.24 1
 0 10 11 11.91 2.19 1
 0 10 12 4.58 1.45 1
 0 10 13 1.06 1.4 1
 0 10 14 11.95 1.33 1
 0 10 15 10.46 1.33 1
 0 10 16 1.16 1.37 1
 0 10 17 15.57 1.53 1
 0 10 18 42.81 2.34 1
 0 10 19 3.86 1.33 1
 0 10 20 10.17 2.29 1
 0 10 21 12.11 1.7 1
 0 10 22 25.19 2.22 1
 0 10 23 2.94 1.91 1
 0 10 24 5.21 1.98 1
 0 11 1 46.17 2.02 1
 0 11 2 282.96 8.97 1
 0 11 3 111.23 3.81 1
 0 11 4 1.67 1.28 1
 0 11 5 3.16 1.51 1
 0 11 6 22.12 1.59 1
 0 11 7 106.57 3.76 1
 0 11 8 2.67 1.59 1
 0 11 9 10.05 1.47 1
 0 11 10 9.5 1.36 1
 0 11 11 40.82 2.78 1
 0 11 12 2.08 1.33 1
 0 11 13 27.19 1.66 1
 0 11 14 8.53 1.43 1
 0 11 15 3.14 1.34 1
 0 11 16 22.42 1.52 1
 0 11 17 18.52 1.61 1
 0 11 18 2.89 1.73 1
 0 11 19 1.54 1.63 1
 0 11 20 19.36 2.34 1
 0 11 21 0.19 2.56 1
 0 11 22 3.21 2.24 1
 0 12 0 5.37 3.34 1
 0 12 1 39.68 2.2 1
 0 12 2 3.3 1.4 1
 0 12 3 14.55 1.46 1
 0 12 4 0.71 1.35 1
 0 12 5 51.76 2.48 1
 0 12 6 7.59 1.39 1
 0 12 7 2.16 1.37 1
 0 12 8 8.12 1.53 1
 0 12 9 43.59 1.98 1
 0 12 10 1.92 1.35 1
 0 12 11 14.51 1.42 1
 0 12 12 0.17 1.63 1
 0 12 13 11.97 1.47 1
 0 12 14 2.45 1.34 1
 0 12 15 18.98 1.86 1
 0 12 16 1.35 1.55 1
 0 12 17 4.38 1.59 1
 0 12 18 -0.47 5.47 1
 0 12 19 7 1.67 1
 0 13 1 6.24 1.37 1
 0 13 2 15.9 1.48 1
 0 13 3 10.32 1.48 1
 0 13 4 15.4 1.47 1
 0 13 5 2.32 1.33 1
 0 13 6 12.04 1.53 1
 0 13 7 12.36 1.45 1
 0 13 8 8.71 1.41 1
 0 13 9 1.82 1.52 1
 0 13 10 0.4 1.45 1
 0 13 11 7.73 1.54 1
 0 13 12 0.72 1.58 1
 0 13 13 3.22 1.53 1
 0 13 14 1.42 1.75 1
 0 13 15 -1.39 6.07 1
 0 13 16 3.79 1.64 1
 0 14 0 4.17 2.03 1
 0 14 1 2.59 1.54 1
 0 14 2 2.01 1.53 1
 0 14 3 2.48 1.45 1
 0 14 4 0.1 1.49 1
 0 14 5 0.92 1.48 1
 0 14 6 7.38 1.54 1
 0 14 7 -0.53 5.96 1
 0 14 8 2.61 1.64 1
 0 14 9 1.58 1.46 1
 0 14 10 1.1 1.71 1
 0 14 11 2.93 1.64 1
 0 14 12 1.4 1.91 1
 0 14 13 -1.23 5.51 1
 0 15 1 3.78 1.66 1
 0 15 2 3.3 1.67 1
 0 15 3 1.66 1.63 1
 0 15 4 -0.09 6.3 1
 0 15 5 0.82 2.57 1
 0 15 6 -1.42 5.6 1
 0 15 7 1.79 2.3 1
 1 0 1 14052.59 485.32 1
 1 0 2 2166.7 61.71 1
 1 0 3 12842.55 388.11 1
 1 0 4 1507.67 44.36 1
 1 0 5 0.16 0.39 1
 1 0 6 7877.72 229.26 1
 1 0 7 477.65 13.78 1
 1 0 8 898.91 27.13 1
 1 0 9 309.4 9.93 1
 1 0 10 1501.04 44.93 1
 1 0 11 842.25 25.71 1
 1 0 12 798.6 23.52 1
 1 0 13 160.44 5.02 1
 1 0 14 319.26 10.51 1
 1 0 15 732.79 22.48 1
 1 0 16 23.23 1.2 1
 1 0 17 10.38 1.09 1
 1 0 18 236.41 7.72 1
 1 0 19 74.26 3.11 1
 1 0 20 158.56 5.22 1
 1 0 21 2.02 1.22 1
 1 0 22 4.95 1.23 1
 1 0 23 2.55 1.27 1
 1 0 24 3.69 1.43 1
 1 0 25 3.43 1.34 1
 1 0 26 27.72 1.66 1
 1 0 27 4.07 1.42 1
 1 0 28 15.22 1.55 1
 1 0 29 -2.37 6.65 1
 1 0 30 5.79 2.14 1
 1 0 31 3.96 1.75 1
 1 1 -31 7.18 2.19 1
 1 1 -30 7.37 1.62 1
 1 1 -29 2.48 1.46 1
 1 1 -28 21.66 1.92 1
 1 1 -27 16.21 1.75 1
 1 1 -26 2.3 1.45 1
 1 1 -25 3.4 1.42 1
 1 1 -24 55.46 2.4 1
 1 1 -23 24.62 1.81 1
 1 1 -22 96.32 3.41 1
 1 1 -21 3.91 1.26 1
 1 1 -20 21.08 1.39 1
 1 1 -19 48.77 2.06 1
 1 1 -18 174.93 6.22 1
 1 1 -17 162.16 5.26 1
 1 1 -16 448.03 13.85 1
 1 1 -15 498.36 15.41 1
 1 1 -14 163.28 5.09 1
 1 1 -13 1257.22 37.35 1
 1 1 -12 56.62 1.98 1
 1 1 -11 161.32 4.97 1
 1 1 -10 1548.28 45.77 1
 1 1 -9 3203.91 92.46 1
 1 1 -8 3088.53 90.3 1
 1 1 -7 4999.88 160.71 1
 1 1 -6 335.82 10.4 1
 1 1 -5 7314.4 227.48 1
 1 1 -4 2596.57 74.53 1
 1 1 -3 19408.4 575.32 1
 1 1 -2 2158.1 86.72 1
 1 1 -1 2713.07 80.67 1
 1 1 0 1183.85 39.1 1
 1 1 1 2627.19 77.86 1
 1 1 2 2237.86 78.31 1
 1 1 3 19477.62 564.37 1
 1 1 4 2730.81 76.21 1
 1 1 5 7656.62 226.55 1
 1 1 6 342.42 11.34 1
 1 1 7 4904.03 143.16 1
 1 1 8 3055.16 91.7 1
 1 1 9 3241.22 95.44 1
 1 1 10 1567.14 47.75 1
 1 1 11 168.1 5.21 1
 1 1 12 60.77 2.2 1
 1 1 13 1288.11 38.76 1
 1 1 14 169.83 5.32 1
 1 1 15 502.6 16.4 1
 1 1 16 442.28 13.92 1
 1 1 17 165.02 5.49 1
 1 1 18 171.32 6.27 1
 1 1 19 50.77 2.32 1
 1 1 20 21.15 1.41 1
 1 1 21 1.27 1.18 1
 1 1 22 94.56 3.3 1
 1 1 23 19.82 1.57 1
 1 1 24 55.07 2.38 1
 1 1 25 6.52 1.37 1
 1 1 26 1.92 1.57 1
 1 1 27 19.88 1.53 1
 1 1 28 19.78 1.85 1
 1 1 29 4.96 1.74 1
 1 1 30 6.45 1.54 1
 1 1 31 3.38 1.78 1
 1 2 -31 4.68 1.72 1
 1 2 -30 7.1 1.73 1
 1 2 -29 4.53 1.54 1
 1 2 -28 7.06 1.44 1
 1 2 -27 6.68 1.5 1
 1 2 -26 60.82 2.6 1
 1 2 -25 30.7 1.76 1
 1 2 -24 71.93 2.98 1
 1 2 -23 11.13 1.47 1
 1 2 -22 87.47 3.24 1
 1 2 -21 71.34 4.14 1
 1 2 -20 296.19 9.62 1
 1 2 -19 89.85 3.31 1
 1 2 -18 63.83 3.03 1
 1 2 -17 60.59 2.32 1
 1 2 -16 82.13 3.11 1
 1 2 -15 111.7 3.59 1
 1 2 -14 574.19 18.11 1
 1 2 -13 673.05 20.21 1
 1 2 -12 298.37 8.93 1
 1 2 -11 126.51 3.83 1
 1 2 -10 127.08 3.88 1
 1 2 -9 3399.41 109.23 1
 1 2 -8 48.36 1.85 1
 1 2 -7 1579.4 47.54 1
 1 2 -6 210.52 6.83 1
 1 2 -5 6736.07 192.08 1
 1 2 -4 2808.13 88.26 1
 1 2 -3 8058.54 248.7 1
 1 2 -2 5069.03 142.95 1
 1 2 -1 912.93 27.42 1
 1 2 0 5.39 0.41 1
 1 2 1 959.92 27.45 1
 1 2 2 4989.7 141.16 1
 1 2 3 8495.78 246.22 1
 1 2 4 2884.75 89.69 1
 1 2 5 6767.42 191.65 1
 1 2 6 211.7 6.11 1
 1 2 7 1650.46 52.4 1
 1 2 8 49.49 1.84 1
 1 2 9 3450.22 118.21 1
 1 2 10 126.03 4.16 1
 1 2 11 131.31 4.28 1
 1 2 12 294.42 9.12 1
 1 2 13 677.24 22.27 1
 1 2 14 554.5 17.3 1
 1 2 15 111.21 4.84 1
 1 2 16 79.15 2.7 1
 1 2 17 57.01 2.13 1
 1 2 18 64.83 2.72 1
 1 2 19 85.12 3.27 1
 1 2 20 294.21 9.53 1
 1 2 21 72.48 3 1
 1 2 22 91.79 3.29 1
 1 2 23 11.82 1.57 1
 1 2 24 73.02 3.3 1
 1 2 25 28.96 1.9 1
 1 2 26 63.31 2.7 1
 1 2 27 7.46 1.4 1
 1 2 28 7.01 1.37 1
 1 2 29 4.47 1.52 1
 1 2 30 5.06 1.57 1
 1 2 31 7.14 2.4 1
 1 3 -30 7.82 1.68 1
 1 3 -29 2 1.78 1
 1 3 -28 17.64 1.71 1
 1 3 -27 3.45 1.44 1
 1 3 -26 43.43 2.15 1
 1 3 -25 11.61 1.5 1
 1 3 -24 67.63 3.15 1
 1 3 -23 12.46 1.58 1
 1 3 -22 227.79 7.54 1
 1 3 -21 129.63 4.6 1
 1 3 -20 29.86 1.67 1
 1 3 -19 40.79 1.79 1
 1 3 -18 422.32 13.76 1
 1 3 -17 94.52 3.46 1
 1 3 -16 234.24 7.25 1
 1 3 -15 6.16 0.87 1
 1 3 -14 245.9 8.17 1
 1 3 -13 770.25 23.35 1
 1 3 -12 617.65 18.69 1
 1 3 -11 495.36 15.09 1
 1 3 -10 364.68 11.37 1
 1 3 -9 4159.14 122.43 1
 1 3 -8 553.36 17.38 1
 1 3 -7 2274.04 66.05 1
 1 3 -6 673.69 23.8 1
 1 3 -5 366.65 11.31 1
 1 3 -4 1358.59 39.86 1
 1 3 -3 6179.46 177.53 1
 1 3 -2 626.4 18.73 1
 1 3 -1 4714.22 144.01 1
 1 3 0 3999.23 115.19 1
 1 3 1 4625.34 133.28 1
 1 3 2 624.46 19.07 1
 1 3 3 6121.31 175.87 1
 1 3 4 1424.65 44.34 1
 1 3 5 365.53 10.95 1
 1 3 6 680.33 20.08 1
 1 3 7 2251.13 71.51 1
 1 3 8 554.58 17.49 1
 1 3 9 4149.62 121 1
 1 3 10 366.25 10.95 1
 1 3 11 511.61 15.64 1
 1 3 12 621.17 19.14 1
 1 3 13 776.86 23.49 1
 1 3 14 248.29 7.83 1
 1 3 15 5.2 1.04 1
 1 3 16 231.66 7.52 1
 1 3 17 95 3.43 1
 1 3 18 410.35 12.94 1
 1 3 19 41.49 2.15 1
 1 3 20 32.43 2.45 1
 1 3 21 126.3 4.36 1
 1 3 22 226.04 7.09 1
 1 3 23 15.37 1.61 1
 1 3 24 65.31 2.56 1
 1 3 25 9.75 1.37 1
 1 3 26 42.85 2.09 1
 1 3 27 2.45 1.3 1
 1 3 28 17.74 1.58 1
 1 3 29 3.37 1.58 1
 1 3 30 6.03 1.68 1
 1 4 -30 3.07 1.72 1
 1 4 -29 6.55 1.63 1
 1 4 -28 13.21 1.57 1
 1 4 -27 2.38 1.95 1
 1 4 -26 18.05 1.63 1
 1 4 -25 11.23 1.41 1
 1 4 -24 50.87 2.75 1
 1 4 -23 5.64 1.56 1
 1 4 -22 73.47 3.15 1
 1 4 -21 13.53 1.96 1
 1 4 -20 182.43 6.6 1
 1 4 -19 96.21 3.63 1
 1 4 -18 168.26 5.83 1
 1 4 -17 101.09 4.81 1
 1 4 -16 336.16 10.56 1
 1 4 -15 252.92 7.89 1
 1 4 -14 369.97 12.26 1
 1 4 -13 299.88 9.35 1
 1 4 -12 347.64 11.11 1
 1 4 -11 2559.7 84.57 1
 1 4 -10 296.31 9.12 1
 1 4 -9 36.86 1.5 1
 1 4 -8 465.66 14.22 1
 1 4 -7 3290.33 95.29 1
 1 4 -6 369.33 11.72 1
 1 4 -5 574.73 18.74 1
 1 4 -4 315.75 9.54 1
 1 4 -3 1769.65 55 1
 1 4 -2 402.01 12.29 1
 1 4 -1 1873.6 60.03 1
 1 4 0 115.97 4.03 1
 1 4 1 1866.18 55.42 1
 1 4 2 417.64 12.55 1
 1 4 3 1748.71 50.91 1
 1 4 4 307.39 9.12 1
 1 4 5 563.86 17.61 1
 1 4 6 382.01 11.8 1
 1 4 7 3274.19 94.97 1
 1 4 8 475.77 13.9 1
 1 4 9 37.07 1.49 1
 1 4 10 293.18 9.78 1
 1 4 11 2664.32 78.85 1
 1 4 12 345.43 11.52 1
 1 4 13 297.64 9.53 1
 1 4 14 378.01 12.27 1
 1 4 15 254.54 8.2 1
 1 4 16 348.92 11.27 1
 1 4 17 105.53 4.12 1
 1 4 18 175.01 5.73 1
 1 4 19 100.47 3.62 1
 1 4 20 183.48 7.8 1
 1 4 21 16.98 1.62 1
 1 4 22 78.13 3.29 1
 1 4 23 4.66 1.32 1
 1 4 24 51.31 2.63 1
 1 4 25 14.85 1.48 1
 1 4 26 21.72 1.5 1
 1 4 27 6.63 1.37 1
 1 4 28 16.26 1.75 1
 1 4 29 9.6 1.61 1
 1 4 30 3.59 1.77 1
 1 5 -29 2.96 1.71 1
 1 5 -28 0.96 1.6 1
 1 5 -27 2.09 1.73 1
 1 5 -26 14.62 1.43 1
 1 5 -25 31.57 1.98 1
 1 5 -24 36.63 1.99 1
 1 5 -23 7.27 1.37 1
 1 5 -22 5.36 1.63 1
 1 5 -21 25.75 2.05 1
 1 5 -20 184.09 6.1 1
 1 5 -19 175.65 7.26 1
 1 5 -18 24.35 1.74 1
 1 5 -17 7.74 1.15 1
 1 5 -16 346.09 13.27 1
 1 5 -15 980.83 39.14 1
 1 5 -14 45.85 1.77 1
 1 5 -13 142.87 5.19 1
 1 5 -12 195.54 6.11 1
 1 5 -11 438.93 13.39 1
 1 5 -10 140.96 5.22 1
 1 5 -9 663.37 21.39 1
 1 5 -8 1.13 0.76 1
 1 5 -7 1383.76 44.79 1
 1 5 -6 647.43 18.87 1
 1 5 -5 486.54 14.1 1
 1 5 -4 158.64 5.15 1
 1 5 -3 3781.64 108.24 1
 1 5 -2 1018.53 30.68 1
 1 5 -1 1358.69 40.8 1
 1 5 0 279.72 8.62 1
 1 5 1 1348.76 40.54 1
 1 5 2 1004.96 31.09 1
 1 5 3 3650.76 113.3 1
 1 5 4 150.8 4.81 1
 1 5 5 486.08 14.42 1
 1 5 6 660.9 19.63 1
 1 5 7 1402.32 43.84 1
 1 5 8 1.69 0.7 1
 1 5 9 709.41 21.83 1
 1 5 10 143.34 4.51 1
 1 5 11 445.8 13.65 1
 1 5 12 197.87 6.14 1
 1 5 13 145.08 5.4 1
 1 5 14 45.32 2.08 1
 1 5 15 941.34 29.97 1
 1 5 16 343.05 14.57 1
 1 5 17 6.7 1.12 1
 1 5 18 24.24 1.53 1
 1 5 19 179.9 6.37 1
 1 5 20 184.55 6.91 1
 1 5 21 24.54 1.74 1
 1 5 22 6.18 1.33 1
 1 5 23 6.17 1.31 1
 1 5 24 34.98 2.09 1
 1 5 25 31.58 2.05 1
 1 5 26 15.3 1.43 1
 1 5 27 1.07 1.6 1
 1 5 28 1.29 1.5 1
 1 5 29 4.85 1.58 1
 1 6 -29 1.54 1.73 1
 1 6 -28 13.18 2.16 1
 1 6 -27 6.63 1.71 1
 1 6 -26 3.09 1.46 1
 1 6 -25 4.91 1.3 1
 1 6 -24 17.78 1.42 1
 1 6 -23 32.54 1.66 1
 1 6 -22 38.44 2.64 1
 1 6 -21 20.17 2.25 1
 1 6 -20 34.3 2.59 1
 1 6 -19 89.68 3.17 1
 1 6 -18 146.1 5.35 1
 1 6 -17 229.81 8.44 1
 1 6 -16 64.34 2.71 1
 1 6 -15 78.51 3.03 1
 1 6 -14 138.52 5.02 1
 1 6 -13 663.28 21.89 1
 1 6 -12 170.52 5.6 1
 1 6 -11 91.68 3.18 1
 1 6 -10 14.39 1.03 1
 1 6 -9 10.4 0.93 1
 1 6 -8 496.98 16.58 1
 1 6 -7 405.56 12.36 1
 1 6 -6 176.68 5.5 1
 1 6 -5 1046.38 31.45 1
 1 6 -4 548.51 16.34 1
 1 6 -3 552.44 16.17 1
 1 6 -2 1071.8 30.89 1
 1 6 -1 1142.53 33.45 1
 1 6 0 220.36 6.67 1
 1 6 1 1100.53 32.58 1
 1 6 2 1062.03 31.76 1
 1 6 3 564.49 17.18 1
 1 6 4 564.03 18.61 1
 1 6 5 1079.19 33.83 1
 1 6 6 179.69 6.14 1
 1 6 7 409.15 12.46 1
 1 6 8 499.27 16.82 1
 1 6 9 11.84 0.93 1
 1 6 10 12.94 0.94 1
 1 6 11 95.8 3.19 1
 1 6 12 167.16 5.32 1
 1 6 13 673.39 21.54 1
 1 6 14 140.09 5.22 1
 1 6 15 82.64 3.22 1
 1 6 16 65.45 2.45 1
 1 6 17 227.6 8.15 1
 1 6 18 146.71 5.05 1
 1 6 19 88.85 3.12 1
 1 6 20 33.38 2.45 1
 1 6 21 20.94 1.57 1
 1 6 22 36.37 2.02 1
 1 6 23 31.6 1.68 1
 1 6 24 18.01 1.58 1
 1 6 25 3.73 1.32 1
 1 6 26 2.85 1.5 1
 1 6 27 6.03 1.52 1
 1 6 28 8.82 1.61 1
 1 6 29 0.15 1.88 1
 1 7 -28 4.59 1.73 1
 1 7 -27 0.92 1.86 1
 1 7 -26 7.77 1.65 1
 1 7 -25 6.13 1.49 1
 1 7 -24 5.98 1.32 1
 1 7 -23 25.61 1.7 1
 1 7 -22 29.32 1.71 1
 1 7 -21 43.52 2 1
 1 7 -20 14.86 1.55 1
 1 7 -19 82.55 3.57 1
 1 7 -18 62.07 3.5 1
 1 7 -17 110.61 5.44 1
 1 7 -16 24.46 1.61 1
 1 7 -15 82.23 3.41 1
 1 7 -14 121.9 4.61 1
 1 7 -13 97.13 3.68 1
 1 7 -12 0.2 1.22 1
 1 7 -11 183.54 6.57 1
 1 7 -10 219.91 6.88 1
 1 7 -9 380.67 13.32 1
 1 7 -8 4.21 0.92 1
 1 7 -7 125.91 4.14 1
 1 7 -6 452.76 14.01 1
 1 7 -5 324.69 10.24 1
 1 7 -4 435.68 13.45 1
 1 7 -3 192.44 6.36 1
 1 7 -2 165.5 5.37 1
 1 7 -1 434.81 13.62 1
 1 7 0 1174.83 36.27 1
 1 7 1 425.78 13.34 1
 1 7 2 171.86 5.47 1
 1 7 3 198.99 6.26 1
 1 7 4 441.56 13.66 1
 1 7 5 330.19 10.12 1
 1 7 6 463.42 14.12 1
 1 7 7 124.3 4.01 1
 1 7 8 5.86 0.9 1
 1 7 9 362.15 12.12 1
 1 7 10 232.08 7.31 1
 1 7 11 185.79 6.5 1
 1 7 12 2.7 1.05 1
 1 7 13 99.71 3.39 1
 1 7 14 122.93 4.02 1
 1 7 15 78.83 2.86 1
 1 7 16 27.6 1.52 1
 1 7 17 111.48 4.57 1
 1 7 18 59.55 2.41 1
 1 7 19 83.75 3.22 1
 1 7 20 15.42 1.67 1
 1 7 21 45.98 2.02 1
 1 7 22 31.73 1.72 1
 1 7 23 31.38 2.3 1
 1 7 24 5.61 1.48 1
 1 7 25 5.98 1.58 1
 1 7 26 11.82 1.56 1
 1 7 27 3.42 1.57 1
 1 7 28 5.14 2.37 1
 1 8 -26 8.75 2.02 1
 1 8 -25 4.92 1.56 1
 1 8 -24 4.82 1.49 1
 1 8 -23 11.09 1.58 1
 1 8 -22 3.31 1.37 1
 1 8 -21 31.63 1.8 1
 1 8 -20 12.41 1.42 1
 1 8 -19 82.32 3.24 1
 1 8 -18 7.76 1.29 1
 1 8 -17 63.38 2.65 1
 1 8 -16 13.04 1.71 1
 1 8 -15 78.96 4.89 1
 1 8 -14 13.67 1.47 1
 1 8 -13 112.46 4.77 1
 1 8 -12 45.35 2.03 1
 1 8 -11 19.88 1.38 1
 1 8 -10 32.08 1.72 1
 1 8 -9 258.25 8.73 1
 1 8 -8 57.62 2.89 1
 1 8 -7 116.55 3.92 1
 1 8 -6 27.33 1.35 1
 1 8 -5 299.16 9.52 1
 1 8 -4 217.75 7.06 1
 1 8 -3 12.36 1.07 1
 1 8 -2 364.81 11.41 1
 1 8 -1 272.61 8.78 1
 1 8 0 172.17 5.61 1
 1 8 1 268.54 8.78 1
 1 8 2 373.79 11.57 1
 1 8 3 14.66 1.03 1
 1 8 4 209.54 6.51 1
 1 8 5 296.59 9.14 1
 1 8 6 26.19 1.46 1
 1 8 7 117.58 3.85 1
 1 8 8 57.51 2.28 1
 1 8 9 247.34 8.22 1
 1 8 10 35.44 1.64 1
 1 8 11 22.16 1.3 1
 1 8 12 39.73 2.16 1
 1 8 13 113.67 5.5 1
 1 8 14 14.1 1.32 1
 1 8 15 82.29 3.04 1
 1 8 16 13.2 1.28 1
 1 8 17 62.54 3.35 1
 1 8 18 5.36 1.42 1
 1 8 19 83.76 3.06 1
 1 8 20 11.67 1.32 1
 1 8 21 34.43 1.79 1
 1 8 22 4.39 1.45 1
 1 8 23 9.73 1.69 1
 1 8 24 9.03 2.14 1
 1 8 25 7.67 1.5 1
 1 8 26 5.85 2.47 1
 1 9 -25 7.93 2.9 1
 1 9 -24 4.52 1.59 1
 1 9 -23 7.92 1.51 1
 1 9 -22 2.65 1.48 1
 1 9 -21 5.75 1.35 1
 1 9 -20 4.84 1.31 1
 1 9 -19 6.58 1.37 1
 1 9 -18 -0.26 5.77 1
 1 9 -17 76.86 3.29 1
 1 9 -16 3.88 1.36 1
 1 9 -15 9.9 1.54 1
 1 9 -14 28.93 2.16 1
 1 9 -13 142.61 5.73 1
 1 9 -12 25.79 1.61 1
 1 9 -11 87.8 4.03 1
 1 9 -10 17.3 1.38 1
 1 9 -9 36.81 1.7 1
 1 9 -8 95.29 3.33 1
 1 9 -7 95.25 3.39 1
 1 9 -6 34.75 1.67 1
 1 9 -5 21.45 1.44 1
 1 9 -4 39.17 1.84 1
 1 9 -3 25.51 1.69 1
 1 9 -2 86.28 3.18 1
 1 9 -1 25.88 1.48 1
 1 9 0 62.21 2.83 1
 1 9 1 27.57 1.48 1
 1 9 2 90.17 3.48 1
 1 9 3 25.58 1.65 1
 1 9 4 38.97 1.81 1
 1 9 5 22.38 1.52 1
 1 9 6 37.49 1.72 1
 1 9 7 100.25 3.54 1
 1 9 8 95.37 3.34 1
 1 9 9 37.29 1.76 1
 1 9 10 17.83 1.51 1
 1 9 11 87.18 3.67 1
 1 9 12 26.4 1.52 1
 1 9 13 152.25 5.34 1
 1 9 14 32.2 1.84 1
 1 9 15 9.13 1.62 1
 1 9 16 1.03 1.32 1
 1 9 17 81.01 3.66 1
 1 9 18 1.26 1.36 1
 1 9 19 5.67 1.29 1
 1 9 20 4.61 1.34 1
 1 9 21 5.95 1.37 1
 1 9 22 1.43 1.54 1
 1 9 23 7.23 1.58 1
 1 9 24 4.37 1.56 1
 1 9 25 4.97 1.83 1
 1 10 -23 3.77 1.84 1
 1 10 -22 3.07 1.57 1
 1 10 -21 3.86 2.13 1
 1 10 -20 4.7 1.76 1
 1 10 -19 5.71 1.45 1
 1 10 -18 6.69 1.54 1
 1 10 -17 3.87 1.28 1
 1 10 -16 5.93 1.28 1
 1 10 -15 37.07 1.8 1
 1 10 -14 0.17 1.31 1
 1 10 -13 37.6 1.85 1
 1 10 -12 24.64 1.76 1
 1 10 -11 68.64 4.02 1
 1 10 -10 38.12 2.44 1
 1 10 -9 17.3 1.52 1
 1 10 -8 2.84 1.55 1
 1 10 -7 12.66 1.53 1
 1 10 -6 87.19 3.52 1
 1 10 -5 35.81 2.23 1
 1 10 -4 34.39 2.37 1
 1 10 -3 52.18 2.27 1
 1 10 -2 15.94 1.51 1
 1 10 -1 126.64 4.41 1
 1 10 0 24.15 1.53 1
 1 10 1 133.32 5.2 1
 1 10 2 14.97 1.43 1
 1 10 3 50.85 2.14 1
 1 10 4 33.46 1.96 1
 1 10 5 34.46 1.76 1
 1 10 6 88.05 3.17 1
 1 10 7 9.32 1.35 1
 1 10 8 4.14 1.16 1
 1 10 9 15.46 1.3 1
 1 10 10 40.83 1.82 1
 1 10 11 66.33 2.91 1
 1 10 12 19.28 1.63 1
 1 10 13 37.35 2.71 1
 1 10 14 1.69 1.29 1
 1 10 15 40.49 2.16 1
 1 10 16 7.18 1.28 1
 1 10 17 6.75 1.46 1
 1 10 18 5.62 1.36 1
 1 10 19 6.26 1.38 1
 1 10 20 4.32 1.48 1
 1 10 21 2.92 1.57 1
 1 10 22 1.25 1.82 1
 1 10 23 6.93 1.62 1
 1 11 -22 3.45 2.77 1
 1 11 -21 -0.08 5.18 1
 1 11 -20 -0.35 5.61 1
 1 11 -19 3.83 1.47 1
 1 11 -18 7.25 1.58 1
 1 11 -17 6.68 1.6 1
 1 11 -16 3.62 1.34 1
 1 11 -15 0.71 1.4 1
 1 11 -14 5.52 1.29 1
 1 11 -13 10.58 1.31 1
 1 11 -12 3.22 1.34 1
 1 11 -11 26.77 1.79 1
 1 11 -10 7.55 1.4 1
 1 11 -9 3.66 1.54 1
 1 11 -8 21.81 1.83 1
 1 11 -7 28.63 1.85 1
 1 11 -6 4.54 1.88 1
 1 11 -5 47.88 2.19 1
 1 11 -4 16.99 1.41 1
 1 11 -3 6.86 1.39 1
 1 11 -2 18.04 1.42 1
 1 11 -1 52.77 2.18 1
 1 11 0 -0.7 5.06 1
 1 11 1 56.31 2.76 1
 1 11 2 21.4 1.65 1
 1 11 3 8.73 1.35 1
 1 11 4 14.63 1.43 1
 1 11 5 45.55 2.01 1
 1 11 6 5.88 2.04 1
 1 11 7 30.57 1.79 1
 1 11 8 19.65 1.62 1
 1 11 9 8.22 1.48 1
 1 11 10 5.84 1.49 1
 1 11 11 24.17 1.7 1
 1 11 12 2.76 1.23 1
 1 11 13 10.27 1.47 1
 1 11 14 5.99 1.36 1
 1 11 15 0.89 1.32 1
 1 11 16 4.84 1.38 1
 1 11 17 8.85 1.37 1
 1 11 18 9.05 1.62 1
 1 11 19 5.88 1.61 1
 1 11 20 2.08 1.55 1
 1 11 21 3.4 1.58 1
 1 11 22 1.84 1.83 1
 1 12 -19 0.14 2.05 1
 1 12 -18 3.7 1.65 1
 1 12 -17 7.63 1.51 1
 1 12 -16 4.41 1.49 1
 1 12 -15 1.94 1.48 1
 1 12 -14 5.62 1.49 1
 1 12 -13 2.72 1.42 1
 1 12 -12 6.21 2.26 1
 1 12 -11 9.63 1.63 1
 1 12 -10 6.54 1.82 1
 1 12 -9 19.53 1.71 1
 1 12 -8 1.09 1.48 1
 1 12 -7 30.5 1.93 1
 1 12 -6 4.55 1.49 1
 1 12 -5 33.22 2.32 1
 1 12 -4 6.09 1.45 1
 1 12 -3 21.86 1.92 1
 1 12 -2 5.71 1.44 1
 1 12 -1 4.64 1.4 1
 1 12 0 18.83 1.51 1
 1 12 1 7.12 1.34 1
 1 12 2 3.48 1.38 1
 1 12 3 20.9 1.56 1
 1 12 4 9.9 1.61 1
 1 12 5 36.46 1.85 1
 1 12 6 4.24 1.38 1
 1 12 7 30.21 1.76 1
 1 12 8 -0.18 5.48 1
 1 12 9 18.93 1.92 1
 1 12 10 4.33 1.32 1
 1 12 11 9.73 1.36 1
 1 12 12 5.6 1.67 1
 1 12 13 3.95 1.69 1
 1 12 14 4.92 1.38 1
 1 12 15 0.53 1.48 1
 1 12 16 10.39 1.63 1
 1 12 17 5.87 1.56 1
 1 12 18 2.88 1.71 1
 1 12 19 0.12 1.96 1
 1 13 -16 2.59 2.47 1
 1 13 -15 2.46 1.95 1
 1 13 -14 3.51 1.72 1
 1 13 -13 4.68 1.57 1
 1 13 -12 7.92 1.75 1
 1 13 -11 4.28 1.52 1
 1 13 -10 0.93 1.48 1
 1 13 -9 -0.93 5.71 1
 1 13 -8 10.06 1.4 1
 1 13 -7 10.29 1.4 1
 1 13 -6 0.07 1.5 1
 1 13 -5 6.34 1.37 1
 1 13 -4 5.11 1.35 1
 1 13 -3 4.57 1.35 1
 1 13 -2 8.73 1.71 1
 1 13 -1 3.08 1.56 1
 1 13 0 4.8 1.4 1
 1 13 1 4.23 1.71 1
 1 13 2 7.72 1.47 1
 1 13 3 4.28 1.46 1
 1 13 4 6.6 1.71 1
 1 13 5 5.46 1.42 1
 1 13 6 5.51 1.35 1
 1 13 7 12.54 1.4 1
 1 13 8 6.69 1.36 1
 1 13 9 4.9 1.35 1
 1 13 10 1.89 1.5 1
 1 13 11 4.3 1.81 1
 1 13 12 7.34 1.91 1
 1 13 13 7.19 1.52 1
 1 13 14 2.11 1.48 1
 1 13 15 3.34 1.57 1
 1 13 16 3.2 2.34 1
 1 14 -12 2.47 1.99 1
 1 14 -11 13.85 1.77 1
 1 14 -10 4.67 1.73 1
 1 14 -9 -0.94 8.66 1
 1 14 -8 1.51 1.52 1
 1 14 -7 9.29 1.53 1
 1 14 -6 4.62 1.75 1
 1 14 -5 3.18 1.48 1
 1 14 -4 6.59 1.86 1
 1 14 -3 1 1.9 1
 1 14 -2 3.12 1.51 1
 1 14 -1 3.41 1.56 1
 1 14 0 4.24 1.51 1
 1 14 1 4.22 1.52 1
 1 14 2 1.29 1.46 1
 1 14 3 2.84 1.47 1
 1 14 4 4.57 1.48 1
 1 14 5 3.27 1.47 1
 1 14 6 5.47 1.75 1
 1 14 7 6.55 1.96 1
 1 14 8 2.61 1.59 1
 1 14 9 2.69 1.6 1
 1 14 10 0.63 1.8 1
 1 14 11 13.11 2.85 1
 1 14 12 1.27 1.85 1
 1 15 -6 2.9 1.97 1
 1 15 -5 1.39 1.77 1
 1 15 -4 6.6 2.57 1
 1 15 -3 1.63 1.63 1
 1 15 -2 1.26 2.09 1
 1 15 -1 1.94 1.63 1
 1 15 0 0.12 1.65 1
 1 15 1 1.15 1.81 1
 1 15 2 7.14 1.68 1
 1 15 3 1.55 1.79 1
 1 15 4 5.45 1.82 1
 1 15 5 0.62 1.69 1
 1 15 6 3.91 1.69 1
 2 0 0 59111.54 2146.5 1
 2 0 1 9412.81 316.42 1
 2 0 2 3315.89 94 1
 2 0 3 967.7 27.97 1
 2 0 4 3139.9 93.24 1
 2 0 5 9156.74 276.31 1
 2 0 6 1354.86 38.54 1
 2 0 7 90.64 2.84 1
 2 0 8 1345.52 39.28 1
 2 0 9 308.74 9.76 1
 2 0 10 520.59 15.93 1
 2 0 11 1052.01 31.37 1
 2 0 12 221.65 6.58 1
 2 0 13 199.57 6.8 1
 2 0 14 136.96 4.39 1
 2 0 15 1612.13 49.46 1
 2 0 16 17.56 1.05 1
 2 0 17 492.6 15.17 1
 2 0 18 79.35 2.83 1
 2 0 19 632.99 20.35 1
 2 0 20 1.14 1.14 1
 2 0 21 301.32 9.86 1
 2 0 22 59.22 2.32 1
 2 0 23 43.62 2.06 1
 2 0 24 1.35 1.33 1
 2 0 25 102.14 3.52 1
 2 0 26 4.35 1.33 1
 2 0 27 12.37 1.75 1
 2 0 28 -0.81 5.56 1
 2 0 29 16.1 1.9 1
 2 0 30 3.36 1.46 1
 2 0 31 16.27 2.19 1
 2 1 -31 8.8 1.74 1
 2 1 -30 0.68 1.46 1
 2 1 -29 19.5 1.61 1
 2 1 -28 -0.58 5.62 1
 2 1 -27 51.3 2.3 1
 2 1 -26 4.17 1.42 1
 2 1 -25 1.27 1.34 1
 2 1 -24 5.59 1.34 1
 2 1 -23 177.94 5.88 1
 2 1 -22 103.17 3.51 1
 2 1 -21 84.23 3.12 1
 2 1 -20 22.99 1.48 1
 2 1 -19 250.56 8.01 1
 2 1 -18 514.65 16.19 1
 2 1 -17 600.08 18.26 1
 2 1 -16 164.28 5.26 1
 2 1 -15 227.68 7.73 1
 2 1 -14 482.01 14.53 1
 2 1 -13 1280.95 40.84 1
 2 1 -12 972.11 30.15 1
 2 1 -11 1075.33 33.03 1
 2 1 -10 646.49 19.57 1
 2 1 -9 838.02 25.22 1
 2 1 -8 83.96 2.98 1
 2 1 -7 2198.23 64.34 1
 2 1 -6 3221.67 96.66 1
 2 1 -5 249.56 8.78 1
 2 1 -4 18178.64 557.43 1
 2 1 -3 2970.2 85.48 1
 2 1 -2 10437.02 315.1 1
 2 1 -1 838.12 27.26 1
 2 1 0 58651.76 1713.14 1
 2 1 1 796.33 23.54 1
 2 1 2 11112.66 392.08 1
 2 1 3 2953.21 82.64 1
 2 1 4 17977.31 509.57 1
 2 1 5 260.25 7.65 1
 2 1 6 3230.17 100.65 1
 2 1 7 2177.97 64.71 1
 2 1 8 81.83 2.68 1
 2 1 9 833.55 25.82 1
 2 1 10 654.94 19.64 1
 2 1 11 1101.14 31.61 1
 2 1 12 994.77 30.5 1
 2 1 13 1304.93 38.8 1
 2 1 14 511.25 15.75 1
 2 1 15 219.06 6.85 1
 2 1 16 166.51 5.47 1
 2 1 17 608.92 19.1 1
 2 1 18 514.2 16.37 1
 2 1 19 254.85 8.19 1
 2 1 20 23.43 1.45 1
 2 1 21 84.55 3.61 1
 2 1 22 98.77 3.41 1
 2 1 23 182.29 6.17 1
 2 1 24 6.87 1.53 1
 2 1 25 1.42 1.31 1
 2 1 26 3.91 1.33 1
 2 1 27 53.67 2.14 1
 2 1 28 1.8 1.33 1
 2 1 29 17.96 1.68 1
 2 1 30 3.26 1.61 1
 2 1 31 6.25 1.89 1
 2 2 -31 8.56 1.74 1
 2 2 -30 4.94 1.63 1
 2 2 -29 10.74 1.81 1
 2 2 -28 1.47 1.35 1
 2 2 -27 12.61 1.46 1
 2 2 -26 14.93 1.46 1
 2 2 -25 84.35 3.24 1
 2 2 -24 12.93 1.42 1
 2 2 -23 2.47 1.39 1
 2 2 -22 21.36 1.38 1
 2 2 -21 115 5.67 1
 2 2 -20 115.61 4.19 1
 2 2 -19 14.34 1.26 1
 2 2 -18 48.59 2.27 1
 2 2 -17 3.26 0.94 1
 2 2 -16 539.01 17.57 1
 2 2 -15 275.13 8.54 1
 2 2 -14 230.51 7.81 1
 2 2 -13 680.24 20.63 1
 2 2 -12 703.74 21.07 1
 2 2 -11 711.04 20.59 1
 2 2 -10 47.6 1.68 1
 2 2 -9 1459.24 49.88 1
 2 2 -8 1997.15 59.05 1
 2 2 -7 1474.71 44.26 1
 2 2 -6 3969.82 115.67 1
 2 2 -5 92.02 2.68 1
 2 2 -4 1459.76 43.57 1
 2 2 -3 1880.07 52.58 1
 2 2 -2 18033.28 525.04 1
 2 2 -1 5064.88 145.16 1
 2 2 0 32.3 1.16 1
 2 2 1 5364.46 182.83 1
 2 2 2 18276.19 535.52 1
 2 2 3 1899.71 64.08 1
 2 2 4 1504.37 49.28 1
 2 2 5 96.58 2.93 1
 2 2 6 4131.05 122.27 1
 2 2 7 1507.63 50.01 1
 2 2 8 2025.52 59.43 1
 2 2 9 1543.09 44.89 1
 2 2 10 49.29 1.64 1
 2 2 11 719.14 21 1
 2 2 12 725.07 22.81 1
 2 2 13 674.41 20.86 1
 2 2 14 236.01 8.2 1
 2 2 15 279.08 8.9 1
 2 2 16 534.81 17.35 1
 2 2 17 4.72 1.28 1
 2 2 18 50.02 2.79 1
 2 2 19 16.49 1.3 1
 2 2 20 114.19 3.87 1
 2 2 21 125.51 4.77 1
 2 2 22 19.96 1.87 1
 2 2 23 3.24 1.45 1
 2 2 24 15.15 1.5 1
 2 2 25 84.74 3.17 1
 2 2 26 14.46 1.42 1
 2 2 27 10.12 1.49 1
 2 2 28 3.02 1.57 1
 2 2 29 14.07 1.6 1
 2 2 30 4.37 1.94 1
 2 2 31 5.47 1.74 1
 2 3 -30 8.48 1.84 1
 2 3 -29 3.41 1.51 1
 2 3 -28 12.04 1.49 1
 2 3 -27 13.1 1.48 1
 2 3 -26 3.12 1.33 1
 2 3 -25 5.18 1.35 1
 2 3 -24 59.01 2.55 1
 2 3 -23 34.61 1.87 1
 2 3 -22 3.89 1.24 1
 2 3 -21 1.67 1.17 1
 2 3 -20 64.36 2.71 1
 2 3 -19 30.37 1.75 1
 2 3 -18 12.82 1.15 1
 2 3 -17 70.38 3.82 1
 2 3 -16 210.99 6.84 1
 2 3 -15 77.39 2.71 1
 2 3 -14 105.07 3.39 1
 2 3 -13 107.63 3.48 1
 2 3 -12 894.07 28.26 1
 2 3 -11 474.18 14.72 1
 2 3 -10 2610.77 74.35 1
 2 3 -9 558.89 16.38 1
 2 3 -8 932.52 28.67 1
 2 3 -7 165.01 6.46 1
 2 3 -6 7805.28 237.96 1
 2 3 -5 3756.1 118.06 1
 2 3 -4 1257.28 36.59 1
 2 3 -3 3201.49 93.66 1
 2 3 -2 3624.69 108.84 1
 2 3 -1 3211.97 92.04 1
 2 3 0 2.99 0.41 1
 2 3 1 3208.29 93.76 1
 2 3 2 3570.66 108.17 1
 2 3 3 3406.45 101.18 1
 2 3 4 1252.25 39.28 1
 2 3 5 3649.99 117.07 1
 2 3 6 8137.77 244.08 1
 2 3 7 183.47 5.83 1
 2 3 8 988.43 29.3 1
 2 3 9 570.54 16.8 1
 2 3 10 2650 80.91 1
 2 3 11 450.09 13.63 1
 2 3 12 918.71 28.43 1
 2 3 13 107.97 3.48 1
 2 3 14 105.25 4.38 1
 2 3 15 74.1 2.59 1
 2 3 16 210.61 6.7 1
 2 3 17 74.96 2.75 1
 2 3 18 13.28 1.39 1
 2 3 19 29.61 1.66 1
 2 3 20 63.3 2.63 1
 2 3 21 2.67 1.32 1
 2 3 22 3.31 1.35 1
 2 3 23 38.72 2.03 1
 2 3 24 53.54 2.17 1
 2 3 25 7.2 1.34 1
 2 3 26 4.19 1.37 1
 2 3 27 12.14 1.37 1
 2 3 28 13.74 1.49 1
 2 3 29 5.78 1.56 1
 2 3 30 8.34 1.68 1
 2 4 -30 2.32 2.41 1
 2 4 -29 2.45 1.49 1
 2 4 -28 2.99 1.83 1
 2 4 -27 7.22 1.36 1
 2 4 -26 7.2 1.37 1
 2 4 -25 3.1 1.31 1
 2 4 -24 2.53 1.3 1
 2 4 -23 35.26 1.99 1
 2 4 -22 28.58 1.89 1
 2 4 -21 14.41 1.68 1
 2 4 -20 20.2 1.83 1
 2 4 -19 63.2 2.5 1
 2 4 -18 50.75 2.13 1
 2 4 -17 89.95 3.2 1
 2 4 -16 62.43 2.58 1
 2 4 -15 51.57 1.9 1
 2 4 -14 106.84 3.57 1
 2 4 -13 18.47 1.06 1
 2 4 -12 261.42 7.94 1
 2 4 -11 178.59 6.11 1
 2 4 -10 425.48 13.13 1
 2 4 -9 146.17 4.73 1
 2 4 -8 1568.96 44.88 1
 2 4 -7 1963.19 61.78 1
 2 4 -6 235.71 7.35 1
 2 4 -5 1826.52 55.6 1
 2 4 -4 2259.39 67.8 1
 2 4 -3 1245.79 38.29 1
 2 4 -2 25.53 1.13 1
 2 4 -1 3031.27 96.53 1
 2 4 0 367.15 11.1 1
 2 4 1 3092.77 91.52 1
 2 4 2 25.14 0.95 1
 2 4 3 1273.65 36.83 1
 2 4 4 2310.54 67.85 1
 2 4 5 1891.13 55.33 1
 2 4 6 227.82 6.83 1
 2 4 7 1969.47 56.74 1
 2 4 8 1571.81 46.22 1
 2 4 9 146.52 4.64 1
 2 4 10 435.86 14 1
 2 4 11 179.58 5.81 1
 2 4 12 275.62 8.58 1
 2 4 13 19.21 1.24 1
 2 4 14 111.83 3.66 1
 2 4 15 52.85 2.05 1
 2 4 16 61.98 2.63 1
 2 4 17 96.37 3.39 1
 2 4 18 53.43 2.04 1
 2 4 19 61.12 3 1
 2 4 20 18.84 1.67 1
 2 4 21 17.06 1.39 1
 2 4 22 31.2 1.86 1
 2 4 23 35.58 2.07 1
 2 4 24 3.08 1.67 1
 2 4 25 0.56 1.43 1
 2 4 26 7.7 1.43 1
 2 4 27 6.12 1.42 1
 2 4 28 6.31 1.54 1
 2 4 29 1.12 1.77 1
 2 4 30 -0.68 6.27 1
 2 5 -29 5.55 1.74 1
 2 5 -28 3.98 1.62 1
 2 5 -27 3.77 1.38 1
 2 5 -26 3.06 1.38 1
 2 5 -25 15.85 1.45 1
 2 5 -24 7.55 1.3 1
 2 5 -23 3.77 1.32 1
 2 5 -22 3.19 1.55 1
 2 5 -21 80.02 3.24 1
 2 5 -20 19.75 1.36 1
 2 5 -19 58.86 2.91 1
 2 5 -18 36.29 1.84 1
 2 5 -17 94.49 3.4 1
 2 5 -16 319.41 10.59 1
 2 5 -15 27.05 1.47 1
 2 5 -14 32.78 1.71 1
 2 5 -13 12 1.3 1
 2 5 -12 696.76 21.38 1
 2 5 -11 51.48 2.22 1
 2 5 -10 11.25 0.88 1
 2 5 -9 199.34 6.22 1
 2 5 -8 180.24 5.85 1
 2 5 -7 168.77 5.93 1
 2 5 -6 49.76 1.67 1
 2 5 -5 511.48 15.09 1
 2 5 -4 801.63 24.16 1
 2 5 -3 2561.33 75.43 1
 2 5 -2 194.41 6.18 1
 2 5 -1 1753.41 52.6 1
 2 5 0 3050.98 89.24 1
 2 5 1 1720.48 49.91 1
 2 5 2 198.13 5.97 1
 2 5 3 2548.32 74.15 1
 2 5 4 806.34 24.38 1
 2 5 5 511.27 15.15 1
 2 5 6 53.43 2.12 1
 2 5 7 168.72 5.22 1
 2 5 8 176.86 5.99 1
 2 5 9 206.68 6.46 1
 2 5 10 11.45 0.82 1
 2 5 11 50.22 1.9 1
 2 5 12 695.88 21.1 1
 2 5 13 10.14 1.08 1
 2 5 14 36.81 1.55 1
 2 5 15 27.14 1.68 1
 2 5 16 321.09 10.54 1
 2 5 17 94.85 3.22 1
 2 5 18 33.59 2.14 1
 2 5 19 63.09 2.76 1
 2 5 20 16.62 1.34 1
 2 5 21 86.84 3.16 1
 2 5 22 3.79 1.31 1
 2 5 23 2.57 1.36 1
 2 5 24 4.55 1.3 1
 2 5 25 17.67 1.69 1
 2 5 26 2.23 1.57 1
 2 5 27 -0.58 5.39 1
 2 5 28 6.15 1.56 1
 2 5 29 4.73 1.58 1
 2 6 -28 1.19 1.78 1
 2 6 -27 -0.12 5.57 1
 2 6 -26 1.37 1.43 1
 2 6 -25 5.72 1.36 1
 2 6 -24 4.61 1.33 1
 2 6 -23 13.42 1.79 1
 2 6 -22 3.98 1.39 1
 2 6 -21 9.01 1.47 1
 2 6 -20 4.49 1.5 1
 2 6 -19 20.44 1.48 1
 2 6 -18 31.79 2.02 1
 2 6 -17 51 3.09 1
 2 6 -16 48.28 2.07 1
 2 6 -15 34 1.73 1
 2 6 -14 435.22 14.45 1
 2 6 -13 88.13 3.4 1
 2 6 -12 157.84 5.24 1
 2 6 -11 41.4 1.84 1
 2 6 -10 633.93 20.03 1
 2 6 -9 88.2 3.05 1
 2 6 -8 205.51 6.44 1
 2 6 -7 91.54 3.01 1
 2 6 -6 114.52 3.91 1
 2 6 -5 264.71 8.14 1
 2 6 -4 33.72 1.5 1
 2 6 -3 74.71 3 1
 2 6 -2 1682.01 49.68 1
 2 6 -1 1087.03 32.39 1
 2 6 0 2.16 0.76 1
 2 6 1 1102.91 32.91 1
 2 6 2 1636.64 48.9 1
 2 6 3 74.28 2.41 1
 2 6 4 37.37 1.43 1
 2 6 5 261.18 7.98 1
 2 6 6 116.84 3.79 1
 2 6 7 94.2 3.05 1
 2 6 8 206.74 7.28 1
 2 6 9 97.77 3.12 1
 2 6 10 629.46 18.83 1
 2 6 11 44.18 1.71 1
 2 6 12 160.57 5.12 1
 2 6 13 84.84 3.01 1
 2 6 14 436.5 14.87 1
 2 6 15 34.73 1.58 1
 2 6 16 51.19 1.97 1
 2 6 17 54.84 2.18 1
 2 6 18 34.02 2 1
 2 6 19 22.01 1.5 1
 2 6 20 2.76 1.44 1
 2 6 21 10.74 1.47 1
 2 6 22 3.67 1.3 1
 2 6 23 9.72 1.82 1
 2 6 24 6.35 1.44 1
 2 6 25 6.11 1.39 1
 2 6 26 3.68 1.53 1
 2 6 27 1.22 1.64 1
 2 6 28 2.51 1.96 1
 2 7 -27 4.85 2.12 1
 2 7 -26 3.16 1.6 1
 2 7 -25 2.2 1.58 1
 2 7 -24 2.83 1.44 1
 2 7 -23 6.98 1.65 1
 2 7 -22 13.4 1.81 1
 2 7 -21 3.76 1.32 1
 2 7 -20 1.65 1.35 1
 2 7 -19 0.91 1.5 1
 2 7 -18 12.34 1.61 1
 2 7 -17 9.22 1.25 1
 2 7 -16 42.32 1.9 1
 2 7 -15 53.73 2.32 1
 2 7 -14 74.44 2.73 1
 2 7 -13 20.27 1.26 1
 2 7 -12 208.74 7.33 1
 2 7 -11 94.91 3.79 1
 2 7 -10 791.06 25.14 1
 2 7 -9 67.33 2.37 1
 2 7 -8 161.67 5.16 1
 2 7 -7 12.22 1.1 1
 2 7 -6 1120.88 34.97 1
 2 7 -5 290.81 9.17 1
 2 7 -4 88.71 3.34 1
 2 7 -3 111.19 3.56 1
 2 7 -2 217.47 6.81 1
 2 7 -1 39.56 1.52 1
 2 7 0 164.78 5.16 1
 2 7 1 39.17 1.49 1
 2 7 2 226.46 7.02 1
 2 7 3 113.6 3.65 1
 2 7 4 86.59 3.03 1
 2 7 5 282.32 8.72 1
 2 7 6 1132.3 34.02 1
 2 7 7 12.71 1.14 1
 2 7 8 153.46 4.92 1
 2 7 9 68.95 3.01 1
 2 7 10 779.87 23.41 1
 2 7 11 103.09 3.52 1
 2 7 12 211.92 7.55 1
 2 7 13 18.35 1.26 1
 2 7 14 75.9 3.07 1
 2 7 15 52.18 2.08 1
 2 7 16 45.84 1.88 1
 2 7 17 9.91 1.19 1
 2 7 18 12.69 1.39 1
 2 7 19 2.35 1.4 1
 2 7 20 0.97 1.3 1
 2 7 21 2.04 1.26 1
 2 7 22 14.72 1.79 1
 2 7 23 8.73 2.25 1
 2 7 24 2.29 1.46 1
 2 7 25 2.68 1.54 1
 2 7 26 1.01 1.61 1
 2 7 27 4.48 1.82 1
 2 8 -26 0.46 2.08 1
 2 8 -25 5.44 1.57 1
 2 8 -24 1.43 1.53 1
 2 8 -23 5.33 1.44 1
 2 8 -22 3.22 1.3 1
 2 8 -21 5.88 1.3 1
 2 8 -20 16.8 1.5 1
 2 8 -19 4.95 1.29 1
 2 8 -18 6.72 1.29 1
 2 8 -17 9.79 1.54 1
 2 8 -16 24 1.72 1
 2 8 -15 27.56 1.74 1
 2 8 -14 29.78 1.77 1
 2 8 -13 20.55 1.49 1
 2 8 -12 90.84 3.21 1
 2 8 -11 59.26 2.46 1
 2 8 -10 69.07 2.72 1
 2 8 -9 30.18 2.26 1
 2 8 -8 740.21 24.34 1
 2 8 -7 173.03 6.08 1
 2 8 -6 136.57 4.59 1
 2 8 -5 2.2 0.96 1
 2 8 -4 676.23 20.91 1
 2 8 -3 200.96 6.35 1
 2 8 -2 107.74 4.1 1
 2 8 -1 30.99 1.36 1
 2 8 0 0.55 0.86 1
 2 8 1 31.92 1.38 1
 2 8 2 107.2 3.73 1
 2 8 3 199.46 6.52 1
 2 8 4 658.3 20.17 1
 2 8 5 2.21 0.93 1
 2 8 6 138.78 4.46 1
 2 8 7 179.16 5.77 1
 2 8 8 711.47 22.26 1
 2 8 9 28.71 1.59 1
 2 8 10 69.37 2.68 1
 2 8 11 57.7 2.2 1
 2 8 12 91.39 3.48 1
 2 8 13 19.21 1.73 1
 2 8 14 33.08 1.57 1
 2 8 15 29.51 1.65 1
 2 8 16 27.63 1.53 1
 2 8 17 7.58 1.42 1
 2 8 18 6.07 1.27 1
 2 8 19 6.4 1.3 1
 2 8 20 17.22 1.51 1
 2 8 21 7.59 1.43 1
 2 8 22 7.81 1.36 1
 2 8 23 4.73 1.48 1
 2 8 24 -1.21 7.05 1
 2 8 25 2.65 1.77 1
 2 8 26 1.56 1.74 1
 2 9 -25 4.24 2.18 1
 2 9 -24 4.26 1.73 1
 2 9 -23 16.22 1.88 1
 2 9 -22 2.31 1.53 1
 2 9 -21 -0.3 5.51 1
 2 9 -20 4.95 1.31 1
 2 9 -19 13.32 1.36 1
 2 9 -18 13.27 1.42 1
 2 9 -17 4.64 1.29 1
 2 9 -16 37.94 1.91 1
 2 9 -15 17.21 2.19 1
 2 9 -14 24.87 2.51 1
 2 9 -13 57.2 2.28 1
 2 9 -12 41.8 2 1
 2 9 -11 33.45 2.64 1
 2 9 -10 3.03 1.32 1
 2 9 -9 171.09 5.68 1
 2 9 -8 41.29 1.78 1
 2 9 -7 35.47 1.84 1
 2 9 -6 39.08 1.85 1
 2 9 -5 168.38 5.52 1
 2 9 -4 305.63 9.76 1
 2 9 -3 11.1 1.21 1
 2 9 -2 8.49 1.17 1
 2 9 -1 58.14 2.3 1
 2 9 0 363.95 11.75 1
 2 9 1 59.37 2.31 1
 2 9 2 12.15 1.18 1
 2 9 3 10.98 1.11 1
 2 9 4 301.53 9.51 1
 2 9 5 167.47 5.35 1
 2 9 6 37.08 1.87 1
 2 9 7 33.84 2.02 1
 2 9 8 39.7 1.84 1
 2 9 9 166.71 5.9 1
 2 9 10 4.99 1.18 1
 2 9 11 38.56 2.21 1
 2 9 12 42.44 1.93 1
 2 9 13 55.8 2.42 1
 2 9 14 24.18 1.5 1
 2 9 15 14.56 1.52 1
 2 9 16 43.08 2.41 1
 2 9 17 4.3 1.27 1
 2 9 18 11.99 1.35 1
 2 9 19 14.43 1.47 1
 2 9 20 5.62 1.28 1
 2 9 21 1.95 1.33 1
 2 9 22 1.73 1.45 1
 2 9 23 16.9 1.63 1
 2 9 24 4.43 1.47 1
 2 9 25 2.37 1.71 1
 2 10 -23 5.87 2.24 1
 2 10 -22 8.26 1.68 1
 2 10 -21 12.82 1.65 1
 2 10 -20 1.97 1.73 1
 2 10 -19 7.22 1.45 1
 2 10 -18 3.39 1.39 1
 2 10 -17 14.73 1.4 1
 2 10 -16 2.69 1.29 1
 2 10 -15 20.39 1.49 1
 2 10 -14 66.51 2.57 1
 2 10 -13 3.21 1.95 1
 2 10 -12 4.07 1.59 1
 2 10 -11 45 3.5 1
 2 10 -10 84.25 3.16 1
 2 10 -9 8.8 1.28 1
 2 10 -8 14.87 1.36 1
 2 10 -7 75.35 2.87 1
 2 10 -6 15.27 1.39 1
 2 10 -5 16.44 1.33 1
 2 10 -4 32.07 1.66 1
 2 10 -3 69.31 2.88 1
 2 10 -2 111.42 4.29 1
 2 10 -1 39.53 2.45 1
 2 10 0 82.21 3 1
 2 10 1 35.51 2.01 1
 2 10 2 115.76 4.06 1
 2 10 3 72.79 3.04 1
 2 10 4 28.41 1.95 1
 2 10 5 16.16 1.4 1
 2 10 6 13.23 1.36 1
 2 10 7 79.17 2.87 1
 2 10 8 12.3 1.46 1
 2 10 9 8.99 1.31 1
 2 10 10 89.78 3.13 1
 2 10 11 50.04 2.38 1
 2 10 12 6.09 1.36 1
 2 10 13 6.33 1.57 1
 2 10 14 68.64 2.69 1
 2 10 15 22.81 1.89 1
 2 10 16 4.77 1.29 1
 2 10 17 11.72 1.47 1
 2 10 18 5.93 1.39 1
 2 10 19 8.79 1.38 1
 2 10 20 3.46 1.48 1
 2 10 21 14.09 1.56 1
 2 10 22 7.16 1.56 1
 2 10 23 3.39 1.59 1
 2 11 -21 4.04 2.62 1
 2 11 -20 6.39 1.8 1
 2 11 -19 4.63 2.28 1
 2 11 -18 18.9 1.71 1
 2 11 -17 10.53 1.54 1
 2 11 -16 2.1 1.34 1
 2 11 -15 7.37 1.42 1
 2 11 -14 8.86 1.57 1
 2 11 -13 9.2 1.47 1
 2 11 -12 25.99 1.6 1
 2 11 -11 12.76 1.6 1
 2 11 -10 5.87 1.34 1
 2 11 -9 4.43 1.38 1
 2 11 -8 44.57 2.41 1
 2 11 -7 12.62 1.63 1
 2 11 -6 3.67 1.4 1
 2 11 -5 2.71 1.33 1
 2 11 -4 25.67 1.69 1
 2 11 -3 11.46 1.46 1
 2 11 -2 37.32 1.96 1
 2 11 -1 8.64 1.3 1
 2 11 0 12.63 1.53 1
 2 11 1 5.94 1.61 1
 2 11 2 36.63 2.02 1
 2 11 3 14.02 1.44 1
 2 11 4 26.3 1.85 1
 2 11 5 4.08 1.26 1
 2 11 6 4.1 1.37 1
 2 11 7 12.59 1.47 1
 2 11 8 42.41 2 1
 2 11 9 5.79 1.47 1
 2 11 10 4.25 1.52 1
 2 11 11 10.9 2 1
 2 11 12 23.47 1.7 1
 2 11 13 9.73 1.32 1
 2 11 14 6 1.35 1
 2 11 15 8.91 1.32 1
 2 11 16 0.64 1.33 1
 2 11 17 12.47 1.66 1
 2 11 18 22.13 1.71 1
 2 11 19 3.12 1.51 1
 2 11 20 5.1 1.52 1
 2 11 21 5.94 2.15 1
 2 12 -19 2.25 2.16 1
 2 12 -18 1.64 1.97 1
 2 12 -17 1.39 1.72 1
 2 12 -16 20.61 2.6 1
 2 12 -15 3.65 1.67 1
 2 12 -14 -0.21 5.5 1
 2 12 -13 7.5 1.44 1
 2 12 -12 5.32 1.32 1
 2 12 -11 1.54 1.31 1
 2 12 -10 3.96 1.31 1
 2 12 -9 15.11 1.4 1
 2 12 -8 10.83 2.37 1
 2 12 -7 5.37 1.29 1
 2 12 -6 19.44 1.45 1
 2 12 -5 3.49 1.32 1
 2 12 -4 12.1 1.42 1
 2 12 -3 6.26 1.48 1
 2 12 -2 45.5 2.1 1
 2 12 -1 0.34 1.41 1
 2 12 0 4.1 1.31 1
 2 12 1 2.05 1.3 1
 2 12 2 45.82 2.82 1
 2 12 3 5.95 1.28 1
 2 12 4 16.84 1.44 1
 2 12 5 3.84 1.33 1
 2 12 6 20.94 1.52 1
 2 12 7 3.97 1.38 1
 2 12 8 11.57 1.44 1
 2 12 9 12.79 1.48 1
 2 12 10 4.21 1.39 1
 2 12 11 1.04 1.4 1
 2 12 12 2.75 1.37 1
 2 12 13 7.44 1.4 1
 2 12 14 1.81 1.38 1
 2 12 15 4.8 1.45 1
 2 12 16 25.01 1.85 1
 2 12 17 0.09 1.45 1
 2 12 18 2.01 1.58 1
 2 12 19 1.94 1.62 1
 2 13 -16 4.45 1.7 1
 2 13 -15 4.39 1.64 1
 2 13 -14 7.98 1.6 1
 2 13 -13 3.45 1.57 1
 2 13 -12 5.9 2.13 1
 2 13 -11 2.54 1.56 1
 2 13 -10 5.58 1.72 1
 2 13 -9 3.94 1.54 1
 2 13 -8 3.21 1.73 1
 2 13 -7 4.1 1.48 1
 2 13 -6 5.36 1.51 1
 2 13 -5 9.47 1.41 1
 2 13 -4 5.29 1.36 1
 2 13 -3 3.73 1.45 1
 2 13 -2 6.04 1.74 1
 2 13 -1 12.48 1.68 1
 2 13 0 0.78 1.41 1
 2 13 1 9.99 1.44 1
 2 13 2 8.4 1.44 1
 2 13 3 6.94 1.38 1
 2 13 4 5.24 1.41 1
 2 13 5 9.87 1.54 1
 2 13 6 5.32 1.5 1
 2 13 7 2.71 1.49 1
 2 13 8 3.23 1.48 1
 2 13 9 4.43 1.94 1
 2 13 10 4.92 1.56 1
 2 13 11 2.95 1.62 1
 2 13 12 4.02 1.98 1
 2 13 13 3.18 1.76 1
 2 13 14 8.52 1.59 1
 2 13 15 3.73 1.74 1
 2 13 16 5.02 1.72 1
 2 14 -12 3.3 1.61 1
 2 14 -11 3.07 1.61 1
 2 14 -10 0.92 2.19 1
 2 14 -9 4.61 1.81 1
 2 14 -8 4.26 1.55 1
 2 14 -7 4.43 1.54 1
 2 14 -6 1.88 1.46 1
 2 14 -5 4.76 1.49 1
 2 14 -4 3.26 1.71 1
 2 14 -3 7.84 1.89 1
 2 14 -2 5.52 1.83 1
 2 14 -1 4.8 1.6 1
 2 14 0 3.5 1.48 1
 2 14 1 4.35 2.35 1
 2 14 2 7.17 1.56 1
 2 14 3 6.1 1.99 1
 2 14 4 3.55 1.61 1
 2 14 5 0.9 1.62 1
 2 14 6 0.14 1.72 1
 2 14 7 3.06 1.83 1
 2 14 8 4.96 2.39 1
 2 14 9 3.18 1.62 1
 2 14 10 5.92 2.02 1
 2 14 11 2.34 1.81 1
 2 14 12 -1.34 5.41 1
 2 15 -5 3.91 1.69 1
 2 15 -4 0.89 1.76 1
 2 15 -3 4.12 1.88 1
 2 15 -2 1.94 2.54 1
 2 15 -1 2.58 1.82 1
 2 15 0 2.23 1.58 1
 2 15 1 3.96 1.6 1
 2 15 2 5.34 1.77 1
 2 15 3 3.98 1.82 1
 2 15 4 1.65 1.8 1
 2 15 5 3.32 2 1
 3 0 1 1588.2 52.14 1
 3 0 2 2533.06 76.6 1
 3 0 3 3560.55 111.29 1
 3 0 4 11019.02 322.77 1
 3 0 5 1079.98 31.02 1
 3 0 6 4272.31 122.91 1
 3 0 7 304.13 10.58 1
 3 0 8 564.16 17.25 1
 3 0 9 1678.04 48.73 1
 3 0 10 545.94 16.9 1
 3 0 11 733.24 21.52 1
 3 0 12 1276.37 38.5 1
 3 0 13 1298.32 38.62 1
 3 0 14 133.28 4.23 1
 3 0 15 578.06 17.6 1
 3 0 16 1043.99 31.7 1
 3 0 17 348.71 13.17 1
 3 0 18 96.67 3.42 1
 3 0 19 2.56 1.29 1
 3 0 20 224.86 10.94 1
 3 0 21 15.95 1.48 1
 3 0 22 2.28 1.17 1
 3 0 23 78.61 2.99 1
 3 0 24 47.75 2.17 1
 3 0 25 5.11 1.41 1
 3 0 26 6.33 1.41 1
 3 0 27 38.87 2.39 1
 3 0 28 3.6 1.4 1
 3 0 29 7.96 1.65 1
 3 0 30 10.32 2.11 1
 3 1 -30 3.15 2.02 1
 3 1 -29 4.45 1.46 1
 3 1 -28 17.07 1.57 1
 3 1 -27 1.72 1.34 1
 3 1 -26 15.44 1.43 1
 3 1 -25 33.42 1.86 1
 3 1 -24 17.78 1.51 1
 3 1 -23 12.81 1.38 1
 3 1 -22 40.71 2.22 1
 3 1 -21 83.92 3.36 1
 3 1 -20 25.36 1.87 1
 3 1 -19 151.28 6.05 1
 3 1 -18 185.09 6.4 1
 3 1 -17 144.07 4.6 1
 3 1 -16 38.73 1.55 1
 3 1 -15 292.28 8.91 1
 3 1 -14 968.34 29.34 1
 3 1 -13 395.88 11.96 1
 3 1 -12 330.16 10.95 1
 3 1 -11 185.81 5.91 1
 3 1 -10 1032.97 30.72 1
 3 1 -9 337.88 10.15 1
 3 1 -8 3413.25 100.94 1
 3 1 -7 57.71 1.83 1
 3 1 -6 1852.27 55.34 1
 3 1 -5 406.33 12.36 1
 3 1 -4 1517.63 44.19 1
 3 1 -3 1504.61 46.24 1
 3 1 -2 3654.76 104.36 1
 3 1 -1 4948.77 144.73 1
 3 1 0 616.65 17.99 1
 3 1 1 4973.4 147.51 1
 3 1 2 3835.18 121.81 1
 3 1 3 1466.49 43.21 1
 3 1 4 1553.32 44.36 1
 3 1 5 418.95 12.45 1
 3 1 6 1843.65 53.11 1
 3 1 7 60.62 1.87 1
 3 1 8 3398.82 100.47 1
 3 1 9 343.02 10.34 1
 3 1 10 1060.44 30.99 1
 3 1 11 185.94 5.65 1
 3 1 12 329.21 10.63 1
 3 1 13 402.72 12.71 1
 3 1 14 949.46 28.98 1
 3 1 15 288.09 8.99 1
 3 1 16 38.17 1.56 1
 3 1 17 140.18 4.66 1
 3 1 18 184.32 5.97 1
 3 1 19 152.62 4.96 1
 3 1 20 25.99 1.5 1
 3 1 21 82.8 3.03 1
 3 1 22 43.46 2.31 1
 3 1 23 12.1 1.53 1
 3 1 24 19.07 1.85 1
 3 1 25 34.87 2.09 1
 3 1 26 16.14 1.92 1
 3 1 27 4.69 1.35 1
 3 1 28 22.19 1.61 1
 3 1 29 5.76 1.51 1
 3 1 30 -0.02 7.3 1
 3 2 -30 13.1 1.74 1
 3 2 -29 7.23 1.48 1
 3 2 -28 5.73 1.67 1
 3 2 -27 5.09 1.45 1
 3 2 -26 24.7 1.58 1
 3 2 -25 19.95 1.64 1
 3 2 -24 5.57 1.38 1
 3 2 -23 7.54 1.39 1
 3 2 -22 23.65 1.52 1
 3 2 -21 124.14 4.23 1
 3 2 -20 7.39 1.28 1
 3 2 -19 119.42 4.21 1
 3 2 -18 14.37 1.4 1
 3 2 -17 75.03 2.65 1
 3 2 -16 29 1.73 1
 3 2 -15 122.43 4.77 1
 3 2 -14 306.68 9.45 1
 3 2 -13 344.19 10.51 1
 3 2 -12 752.2 22.53 1
 3 2 -11 246.02 7.58 1
 3 2 -10 2362.88 69.06 1
 3 2 -9 3483.21 102.32 1
 3 2 -8 1353.95 40.01 1
 3 2 -7 1622.57 48.25 1
 3 2 -6 1158.13 34.6 1
 3 2 -5 3699.65 109.24 1
 3 2 -4 853.09 30.41 1
 3 2 -3 6486.49 185.08 1
 3 2 -2 6134.29 176.2 1
 3 2 -1 2022.26 57.82 1
 3 2 0 2009.51 58.07 1
 3 2 1 1905.42 54.31 1
 3 2 2 6070.08 175.87 1
 3 2 3 6490.65 194.36 1
 3 2 4 862.43 29.18 1
 3 2 5 3792.7 133.72 1
 3 2 6 1152.25 33.42 1
 3 2 7 1623.04 48.12 1
 3 2 8 1284.74 38.16 1
 3 2 9 3495.29 102.95 1
 3 2 10 2339.61 69.76 1
 3 2 11 242 7.85 1
 3 2 12 735.8 22.03 1
 3 2 13 343.94 10.66 1
 3 2 14 300.97 9.62 1
 3 2 15 132.35 4.48 1
 3 2 16 28.24 1.48 1
 3 2 17 69.85 2.59 1
 3 2 18 13.12 1.14 1
 3 2 19 118.48 3.97 1
 3 2 20 8.04 1.18 1
 3 2 21 123.18 4.19 1
 3 2 22 24.06 1.94 1
 3 2 23 10.03 1.47 1
 3 2 24 5.04 1.44 1
 3 2 25 20.06 1.58 1
 3 2 26 24.57 1.55 1
 3 2 27 6.4 1.37 1
 3 2 28 3.29 1.71 1
 3 2 29 6.22 1.79 1
 3 2 30 10.29 1.73 1
 3 3 -30 0.32 1.72 1
 3 3 -29 7.61 1.68 1
 3 3 -28 3.96 1.49 1
 3 3 -27 18.3 1.49 1
 3 3 -26 16.43 1.46 1
 3 3 -25 7.17 1.46 1
 3 3 -24 11.02 1.44 1
 3 3 -23 70.11 3.55 1
 3 3 -22 15.84 1.45 1
 3 3 -21 3.26 1.18 1
 3 3 -20 15.06 1.49 1
 3 3 -19 58.43 2.37 1
 3 3 -18 2.65 1.09 1
 3 3 -17 46.23 1.82 1
 3 3 -16 4.16 0.97 1
 3 3 -15 24.59 1.31 1
 3 3 -14 65.02 2.37 1
 3 3 -13 131.5 4.23 1
 3 3 -12 219.41 6.69 1
 3 3 -11 793.98 23.79 1
 3 3 -10 106.67 4.02 1
 3 3 -9 384.19 11.3 1
 3 3 -8 502.72 15.48 1
 3 3 -7 3368.93 102.57 1
 3 3 -6 35.77 1.34 1
 3 3 -5 2491.23 78.61 1
 3 3 -4 228.7 6.96 1
 3 3 -3 2581.26 76.18 1
 3 3 -2 191.49 5.64 1
 3 3 -1 3185.58 91.92 1
 3 3 0 3710.42 108.74 1
 3 3 1 3112.59 92.61 1
 3 3 2 189.74 5.78 1
 3 3 3 2621.4 75.7 1
 3 3 4 236.74 7.3 1
 3 3 5 2631.82 78.7 1
 3 3 6 36.14 1.33 1
 3 3 7 3337.22 111.18 1
 3 3 8 492.37 14.72 1
 3 3 9 393.66 11.79 1
 3 3 10 110.48 3.46 1
 3 3 11 804.5 24.09 1
 3 3 12 229.39 7.41 1
 3 3 13 128.07 4.24 1
 3 3 14 65.54 2.29 1
 3 3 15 24.85 1.24 1
 3 3 16 4.64 1.04 1
 3 3 17 48.65 2.14 1
 3 3 18 1.81 1.06 1
 3 3 19 60.31 2.67 1
 3 3 20 16.93 1.37 1
 3 3 21 5.19 1.29 1
 3 3 22 15.95 1.69 1
 3 3 23 74.64 2.75 1
 3 3 24 9.43 1.33 1
 3 3 25 4.89 1.29 1
 3 3 26 17.3 2.29 1
 3 3 27 22.49 2.17 1
 3 3 28 6.05 1.55 1
 3 3 29 5.96 1.67 1
 3 3 30 3.92 1.59 1
 3 4 -29 3.25 1.65 1
 3 4 -28 14.27 1.53 1
 3 4 -27 2.86 1.73 1
 3 4 -26 16.43 1.46 1
 3 4 -25 40.48 2.29 1
 3 4 -24 28.29 2.05 1
 3 4 -23 1.3 1.34 1
 3 4 -22 84.06 3.1 1
 3 4 -21 79.07 3.07 1
 3 4 -20 25.45 1.43 1
 3 4 -19 74.14 2.75 1
 3 4 -18 113.66 4.1 1
 3 4 -17 10.22 1.25 1
 3 4 -16 72.2 2.84 1
 3 4 -15 351.29 11 1
 3 4 -14 151.07 4.71 1
 3 4 -13 78.36 2.57 1
 3 4 -12 254.25 7.83 1
 3 4 -11 275.26 8.76 1
 3 4 -10 88.11 2.9 1
 3 4 -9 187.46 5.77 1
 3 4 -8 884.83 25.77 1
 3 4 -7 469.32 14.13 1
 3 4 -6 71.58 2.69 1
 3 4 -5 985.74 28.67 1
 3 4 -4 1488.41 43.92 1
 3 4 -3 4931.26 144.39 1
 3 4 -2 164.53 5.1 1
 3 4 -1 2865.33 86.14 1
 3 4 0 245.89 8.16 1
 3 4 1 2860.47 84.41 1
 3 4 2 165.29 5.1 1
 3 4 3 5045.47 145.31 1
 3 4 4 1532.68 45.13 1
 3 4 5 957.49 28.64 1
 3 4 6 69.71 2.24 1
 3 4 7 480.45 14.04 1
 3 4 8 889.58 28.31 1
 3 4 9 192.12 6.79 1
 3 4 10 88.8 2.83 1
 3 4 11 279.08 8.8 1
 3 4 12 256.94 8.28 1
 3 4 13 80.83 2.73 1
 3 4 14 151.73 5.13 1
 3 4 15 366.21 11.62 1
 3 4 16 72.81 2.68 1
 3 4 17 9.41 1.24 1
 3 4 18 119.14 4.09 1
 3 4 19 72.05 3.11 1
 3 4 20 24.97 1.55 1
 3 4 21 83.42 3.2 1
 3 4 22 85.26 3.03 1
 3 4 23 0.16 1.29 1
 3 4 24 31.88 1.67 1
 3 4 25 38 1.78 1
 3 4 26 13.42 1.8 1
 3 4 27 1.33 1.56 1
 3 4 28 10.35 1.55 1
 3 4 29 5.01 1.63 1
 3 5 -29 1.97 2.26 1
 3 5 -28 3.88 1.72 1
 3 5 -27 4.06 1.49 1
 3 5 -26 11.3 1.59 1
 3 5 -25 14.51 1.57 1
 3 5 -24 42.55 1.92 1
 3 5 -23 15.09 1.49 1
 3 5 -22 5.8 1.56 1
 3 5 -21 24 1.61 1
 3 5 -20 204.35 6.78 1
 3 5 -19 29.63 1.54 1
 3 5 -18 38.32 1.69 1
 3 5 -17 58.76 2.76 1
 3 5 -16 250.05 8.28 1
 3 5 -15 61.26 2.52 1
 3 5 -14 164.97 5.56 1
 3 5 -13 166.99 5.31 1
 3 5 -12 161.18 5.14 1
 3 5 -11 275.53 8.6 1
 3 5 -10 270.57 9.21 1
 3 5 -9 116.8 4.11 1
 3 5 -8 93.88 3.3 1
 3 5 -7 516.55 16.32 1
 3 5 -6 507.24 16.19 1
 3 5 -5 580.85 17.09 1
 3 5 -4 8.68 0.72 1
 3 5 -3 81.1 2.57 1
 3 5 -2 431.68 13.08 1
 3 5 -1 2134.5 63.1 1
 3 5 0 131.88 3.99 1
 3 5 1 2093.32 62 1
 3 5 2 457.51 13.62 1
 3 5 3 87.02 2.85 1
 3 5 4 7.14 0.72 1
 3 5 5 607.81 18.05 1
 3 5 6 528.48 15.68 1
 3 5 7 518.64 15.31 1
 3 5 8 94.9 3.11 1
 3 5 9 125.22 3.88 1
 3 5 10 283.51 8.69 1
 3 5 11 274.64 8.73 1
 3 5 12 166.52 6.24 1
 3 5 13 167.55 5.18 1
 3 5 14 180.68 5.94 1
 3 5 15 63.26 2.35 1
 3 5 16 253.85 8.52 1
 3 5 17 59.34 2.57 1
 3 5 18 39.86 2.12 1
 3 5 19 28.07 1.69 1
 3 5 20 211.76 6.89 1
 3 5 21 29.9 2.26 1
 3 5 22 6.58 1.4 1
 3 5 23 14.41 1.35 1
 3 5 24 38.8 2.33 1
 3 5 25 14.58 1.62 1
 3 5 26 12.96 1.71 1
 3 5 27 3.17 1.67 1
 3 5 28 3.16 1.51 1
 3 5 29 4.05 1.61 1
 3 6 -28 6.1 1.78 1
 3 6 -27 4.84 1.55 1
 3 6 -26 4.93 1.44 1
 3 6 -25 4.86 1.44 1
 3 6 -24 5.59 1.55 1
 3 6 -23 38.21 1.88 1
 3 6 -22 45.62 1.98 1
 3 6 -21 31.85 2.23 1
 3 6 -20 13.33 1.54 1
 3 6 -19 140.93 4.58 1
 3 6 -18 173.65 5.87 1
 3 6 -17 53.1 2.43 1
 3 6 -16 116.93 4.97 1
 3 6 -15 106.78 3.61 1
 3 6 -14 160.69 5.3 1
 3 6 -13 35.32 2.18 1
 3 6 -12 114.73 4.41 1
 3 6 -11 26.1 1.47 1
 3 6 -10 3.73 0.9 1
 3 6 -9 186.18 6.26 1
 3 6 -8 99.77 3.33 1
 3 6 -7 501.08 16.78 1
 3 6 -6 106.55 4.12 1
 3 6 -5 128.79 4.13 1
 3 6 -4 192.52 5.93 1
 3 6 -3 1470.64 43.37 1
 3 6 -2 227.89 7.56 1
 3 6 -1 595.11 17.87 1
 3 6 0 19.03 0.97 1
 3 6 1 593.28 18.02 1
 3 6 2 230.3 7.33 1
 3 6 3 1463.57 45.13 1
 3 6 4 191.6 5.89 1
 3 6 5 130.79 4.04 1
 3 6 6 110.09 3.48 1
 3 6 7 494.93 14.77 1
 3 6 8 105.42 3.43 1
 3 6 9 187.4 6.32 1
 3 6 10 4.4 0.85 1
 3 6 11 24.69 1.73 1
 3 6 12 117.89 3.73 1
 3 6 13 34.22 1.53 1
 3 6 14 163 5.34 1
 3 6 15 108.7 3.8 1
 3 6 16 124.52 4.87 1
 3 6 17 57.21 2.69 1
 3 6 18 173.38 5.84 1
 3 6 19 147.95 4.97 1
 3 6 20 11.68 1.74 1
 3 6 21 34.63 1.75 1
 3 6 22 47.14 1.97 1
 3 6 23 34.83 1.79 1
 3 6 24 7.07 1.45 1
 3 6 25 -0.21 5.62 1
 3 6 26 7.56 1.52 1
 3 6 27 7.83 1.62 1
 3 6 28 7.56 1.96 1
 3 7 -27 0.75 2.1 1
 3 7 -26 8.88 1.6 1
 3 7 -25 7.15 2.47 1
 3 7 -24 4.63 1.76 1
 3 7 -23 13.77 1.74 1
 3 7 -22 0.21 1.64 1
 3 7 -21 28.11 1.75 1
 3 7 -20 10.94 1.37 1
 3 7 -19 59.38 2.6 1
 3 7 -18 38.64 2.13 1
 3 7 -17 103.87 3.48 1
 3 7 -16 44.36 1.89 1
 3 7 -15 80.67 3.4 1
 3 7 -14 167.73 5.69 1
 3 7 -13 68.61 2.87 1
 3 7 -12 62.13 2.53 1
 3 7 -11 21.82 1.63 1
 3 7 -10 26.88 1.47 1
 3 7 -9 63.86 2.48 1
 3 7 -8 167.29 5.43 1
 3 7 -7 98.43 3.62 1
 3 7 -6 161.22 5.1 1
 3 7 -5 736.94 22.49 1
 3 7 -4 194.08 6.09 1
 3 7 -3 64.03 2.19 1
 3 7 -2 182.13 5.61 1
 3 7 -1 819.34 25.49 1
 3 7 0 141.47 4.6 1
 3 7 1 809.06 24.7 1
 3 7 2 185.34 5.78 1
 3 7 3 64.99 2.24 1
 3 7 4 197.66 6.02 1
 3 7 5 743.95 22.27 1
 3 7 6 156.53 4.94 1
 3 7 7 99.21 3.19 1
 3 7 8 161.25 4.99 1
 3 7 9 66.16 2.49 1
 3 7 10 24.14 1.19 1
 3 7 11 21.16 1.23 1
 3 7 12 67.72 2.45 1
 3 7 13 71.52 2.69 1
 3 7 14 176.97 5.76 1
 3 7 15 78.46 2.78 1
 3 7 16 47.08 2.66 1
 3 7 17 100.32 3.4 1
 3 7 18 36.84 2.25 1
 3 7 19 60.6 2.36 1
 3 7 20 11.22 1.28 1
 3 7 21 30.18 1.68 1
 3 7 22 3.23 1.31 1
 3 7 23 14.43 1.37 1
 3 7 24 5.25 1.51 1
 3 7 25 7.7 1.57 1
 3 7 26 5.26 1.78 1
 3 7 27 1.94 1.89 1
 3 8 -26 4.36 2.5 1
 3 8 -25 1.41 1.66 1
 3 8 -24 5.07 1.63 1
 3 8 -23 1.79 1.64 1
 3 8 -22 4.27 1.44 1
 3 8 -21 5.78 1.35 1
 3 8 -20 3.94 1.29 1
 3 8 -19 2.01 1.25 1
 3 8 -18 4.51 1.24 1
 3 8 -17 23.63 1.77 1
 3 8 -16 42.75 2.21 1
 3 8 -15 1.24 1.23 1
 3 8 -14 48.9 2 1
 3 8 -13 112.3 4 1
 3 8 -12 198.02 7.28 1
 3 8 -11 6.8 1.33 1
 3 8 -10 259.24 8.14 1
 3 8 -9 116.96 3.93 1
 3 8 -8 120.14 3.97 1
 3 8 -7 66.64 2.59 1
 3 8 -6 206.64 6.73 1
 3 8 -5 24.78 1.33 1
 3 8 -4 198.78 6.53 1
 3 8 -3 217.14 7.27 1
 3 8 -2 30.46 1.54 1
 3 8 -1 57.73 2.28 1
 3 8 0 348.3 10.62 1
 3 8 1 55.29 2.24 1
 3 8 2 27.49 1.34 1
 3 8 3 209.09 6.54 1
 3 8 4 200.16 6.3 1
 3 8 5 25.69 1.32 1
 3 8 6 216.13 7.02 1
 3 8 7 62.64 2.34 1
 3 8 8 115.63 4 1
 3 8 9 116.14 3.95 1
 3 8 10 245.5 8.12 1
 3 8 11 7.07 1.31 1
 3 8 12 203.27 6.67 1
 3 8 13 111.29 3.66 1
 3 8 14 50.59 2 1
 3 8 15 -0.19 4.8 1
 3 8 16 45.45 2.13 1
 3 8 17 23.95 2.01 1
 3 8 18 4.66 1.39 1
 3 8 19 1.98 1.21 1
 3 8 20 1.86 1.24 1
 3 8 21 7.47 1.34 1
 3 8 22 4.1 1.28 1
 3 8 23 -0.06 5.72 1
 3 8 24 4.68 1.77 1
 3 8 25 7.14 1.48 1
 3 8 26 2.29 1.67 1
 3 9 -24 1.58 1.75 1
 3 9 -23 8.96 1.61 1
 3 9 -22 2.39 1.65 1
 3 9 -21 2 1.6 1
 3 9 -20 7.81 1.37 1
 3 9 -19 12 1.4 1
 3 9 -18 3.76 1.28 1
 3 9 -17 9.88 1.31 1
 3 9 -16 0.53 1.24 1
 3 9 -15 3.41 1.35 1
 3 9 -14 56.6 2.58 1
 3 9 -13 7.2 1.57 1
 3 9 -12 100.94 3.72 1
 3 9 -11 35.01 1.77 1
 3 9 -10 131.79 5.01 1
 3 9 -9 1.31 1.44 1
 3 9 -8 255.34 8.34 1
 3 9 -7 24.97 1.95 1
 3 9 -6 111.17 3.86 1
 3 9 -5 75.57 2.89 1
 3 9 -4 59.15 2.46 1
 3 9 -3 22.27 1.33 1
 3 9 -2 226.57 7.2 1
 3 9 -1 152.67 5.32 1
 3 9 0 25.33 1.52 1
 3 9 1 155.79 5.22 1
 3 9 2 221.89 7.08 1
 3 9 3 22.24 1.74 1
 3 9 4 59.15 2.24 1
 3 9 5 80.09 2.84 1
 3 9 6 110.62 3.83 1
 3 9 7 23.68 1.5 1
 3 9 8 254.37 8.57 1
 3 9 9 2.4 1.15 1
 3 9 10 134.4 6.18 1
 3 9 11 36.13 1.73 1
 3 9 12 100.06 3.82 1
 3 9 13 11.42 1.39 1
 3 9 14 61.44 2.45 1
 3 9 15 3.19 1.39 1
 3 9 16 0.8 1.23 1
 3 9 17 9.1 1.3 1
 3 9 18 5.19 1.24 1
 3 9 19 11.25 1.35 1
 3 9 20 9.59 1.31 1
 3 9 21 2.56 1.33 1
 3 9 22 1.35 1.45 1
 3 9 23 4.69 1.78 1
 3 9 24 3.17 1.57 1
 3 10 -23 -1.14 6.49 1
 3 10 -22 3.21 1.63 1
 3 10 -21 8.25 1.65 1
 3 10 -20 8.17 1.66 1
 3 10 -19 4.81 1.5 1
 3 10 -18 16.09 1.48 1
 3 10 -17 16.52 1.46 1
 3 10 -16 21.24 1.75 1
 3 10 -15 1.14 1.68 1
 3 10 -14 8 1.32 1
 3 10 -13 23.23 1.49 1
 3 10 -12 37.49 1.9 1
 3 10 -11 8.42 1.61 1
 3 10 -10 41.31 2.09 1
 3 10 -9 12.37 1.51 1
 3 10 -8 4.44 1.24 1
 3 10 -7 15.17 1.94 1
 3 10 -6 116.85 4.09 1
 3 10 -5 7.89 1.21 1
 3 10 -4 29.58 1.63 1
 3 10 -3 6.04 1.18 1
 3 10 -2 38.85 1.88 1
 3 10 -1 5.41 1.17 1
 3 10 0 44.46 1.94 1
 3 10 1 5.54 1.22 1
 3 10 2 39.45 1.9 1
 3 10 3 6.32 1.26 1
 3 10 4 30.62 1.65 1
 3 10 5 11.41 1.25 1
 3 10 6 118.29 3.95 1
 3 10 7 17.93 1.33 1
 3 10 8 1.23 1.17 1
 3 10 9 14.69 1.33 1
 3 10 10 47.71 2.77 1
 3 10 11 6.41 1.25 1
 3 10 12 34.26 1.74 1
 3 10 13 24.01 1.7 1
 3 10 14 5.47 1.31 1
 3 10 15 2.26 1.19 1
 3 10 16 21.86 1.44 1
 3 10 17 13.37 1.42 1
 3 10 18 16.31 1.4 1
 3 10 19 3.42 1.29 1
 3 10 20 7.57 1.49 1
 3 10 21 9.01 1.56 1
 3 10 22 2.36 1.57 1
 3 10 23 -0.47 6.58 1
 3 11 -21 3.21 1.83 1
 3 11 -20 4.46 2 1
 3 11 -19 7.96 2.02 1
 3 11 -18 7.29 2.12 1
 3 11 -17 9.66 2.1 1
 3 11 -16 12.74 1.62 1
 3 11 -15 8.76 1.41 1
 3 11 -14 20.59 1.53 1
 3 11 -13 13.82 1.82 1
 3 11 -12 5.58 1.3 1
 3 11 -11 16.78 1.72 1
 3 11 -10 15.22 1.47 1
 3 11 -9 8.29 1.42 1
 3 11 -8 17.08 1.51 1
 3 11 -7 14.83 1.73 1
 3 11 -6 22.75 1.66 1
 3 11 -5 38.06 2.27 1
 3 11 -4 36.05 2.25 1
 3 11 -3 5.87 1.62 1
 3 11 -2 14.15 1.59 1
 3 11 -1 35.38 2.37 1
 3 11 0 22.49 1.54 1
 3 11 1 36.4 1.85 1
 3 11 2 13.49 1.48 1
 3 11 3 4.59 1.55 1
 3 11 4 40.04 1.99 1
 3 11 5 38.98 1.95 1
 3 11 6 27.81 1.76 1
 3 11 7 12.27 1.48 1
 3 11 8 19.22 1.48 1
 3 11 9 4.13 1.36 1
 3 11 10 15.17 1.46 1
 3 11 11 13.63 1.97 1
 3 11 12 4.21 1.29 1
 3 11 13 14.29 1.56 1
 3 11 14 21.9 1.51 1
 3 11 15 8.66 1.33 1
 3 11 16 11.99 1.53 1
 3 11 17 11.1 1.39 1
 3 11 18 7.41 1.5 1
 3 11 19 4.79 1.53 1
 3 11 20 4.22 1.86 1
 3 11 21 1.26 1.78 1
 3 12 -18 2.66 1.64 1
 3 12 -17 2.81 1.98 1
 3 12 -16 6.29 1.97 1
 3 12 -15 12.39 1.62 1
 3 12 -14 1.37 1.53 1
 3 12 -13 7.12 1.75 1
 3 12 -12 13.84 1.62 1
 3 12 -11 12.15 1.68 1
 3 12 -10 3.17 1.38 1
 3 12 -9 5.11 1.31 1
 3 12 -8 6.54 1.33 1
 3 12 -7 7.31 1.32 1
 3 12 -6 7.35 1.35 1
 3 12 -5 7.3 1.5 1
 3 12 -4 5.54 1.32 1
 3 12 -3 14.12 1.4 1
 3 12 -2 5.8 1.7 1
 3 12 -1 11.98 1.47 1
 3 12 0 -0.02 5.44 1
 3 12 1 15.39 1.91 1
 3 12 2 5.21 1.54 1
 3 12 3 14.83 1.62 1
 3 12 4 3.67 1.37 1
 3 12 5 5.39 1.43 1
 3 12 6 5.91 1.44 1
 3 12 7 11.19 1.55 1
 3 12 8 8.06 1.52 1
 3 12 9 7.03 1.96 1
 3 12 10 3 1.35 1
 3 12 11 9.61 1.4 1
 3 12 12 15.35 1.54 1
 3 12 13 6.18 1.32 1
 3 12 14 1.55 1.36 1
 3 12 15 9.13 1.69 1
 3 12 16 3.54 1.53 1
 3 12 17 3.34 1.63 1
 3 12 18 1 1.77 1
 3 13 -15 0.67 1.63 1
 3 13 -14 2.53 1.7 1
 3 13 -13 3.82 1.65 1
 3 13 -12 1.1 1.6 1
 3 13 -11 13.89 1.6 1
 3 13 -10 2.09 1.73 1
 3 13 -9 5.96 1.94 1
 3 13 -8 5.46 1.53 1
 3 13 -7 21.14 1.59 1
 3 13 -6 2.32 1.37 1
 3 13 -5 8.78 1.46 1
 3 13 -4 8.06 1.45 1
 3 13 -3 8.51 1.56 1
 3 13 -2 8.09 1.71 1
 3 13 -1 4.44 1.42 1
 3 13 0 17.33 1.81 1
 3 13 1 5.75 1.38 1
 3 13 2 6.96 1.38 1
 3 13 3 11.31 1.43 1
 3 13 4 8.28 1.54 1
 3 13 5 6.29 1.39 1
 3 13 6 -0.13 8.04 1
 3 13 7 19.98 1.77 1
 3 13 8 1.74 1.37 1
 3 13 9 4.47 1.99 1
 3 13 10 3.2 1.5 1
 3 13 11 14.73 1.58 1
 3 13 12 2.31 1.8 1
 3 13 13 0.8 1.73 1
 3 13 14 3.03 2.07 1
 3 13 15 2.55 2.57 1
 3 14 -11 2.38 1.77 1
 3 14 -10 -0.1 5.63 1
 3 14 -9 1.3 1.65 1
 3 14 -8 3.64 1.77 1
 3 14 -7 2.4 1.53 1
 3 14 -6 5.32 1.78 1
 3 14 -5 6.1 2.21 1
 3 14 -4 6.37 2.08 1
 3 14 -3 1.88 1.48 1
 3 14 -2 2.23 1.44 1
 3 14 -1 2.5 1.43 1
 3 14 0 9.75 1.49 1
 3 14 1 3.78 1.49 1
 3 14 2 3.8 1.59 1
 3 14 3 3 1.92 1
 3 14 4 6.39 1.65 1
 3 14 5 6.8 1.51 1
 3 14 6 2.47 1.49 1
 3 14 7 3.78 1.5 1
 3 14 8 2.32 1.53 1
 3 14 9 2.16 1.99 1
 3 14 10 3.5 2 1
 3 14 11 2.65 2.19 1
 3 15 -3 3.2 2.08 1
 3 15 -2 6.67 2.86 1
 3 15 -1 -0.22 5.6 1
 3 15 0 3.93 1.7 1
 3 15 1 4.91 1.85 1
 3 15 2 2.93 1.63 1
 3 15 3 1.5 2.26 1
 4 0 0 3157.61 131.69 1
 4 0 1 441.64 26.23 1
 4 0 2 1438.72 42.52 1
 4 0 3 95.73 2.94 1
 4 0 4 3368.75 99.68 1
 4 0 5 28.43 1.16 1
 4 0 6 757.56 22.45 1
 4 0 7 306.39 9.32 1
 4 0 8 777.71 22.98 1
 4 0 9 102.54 3.13 1
 4 0 10 1076.78 32.1 1
 4 0 11 798.15 24.15 1
 4 0 12 436.74 13.18 1
 4 0 13 71.22 2.47 1
 4 0 14 1002.29 30.16 1
 4 0 15 287.63 8.93 1
 4 0 16 594.12 18.5 1
 4 0 17 8.12 1.07 1
 4 0 18 41.43 1.79 1
 4 0 19 36.03 1.73 1
 4 0 20 10.67 1.37 1
 4 0 21 0.75 1.24 1
 4 0 22 6.43 1.42 1
 4 0 23 1.96 1.45 1
 4 0 24 28.78 2 1
 4 0 25 6.36 1.32 1
 4 0 26 2.96 1.43 1
 4 0 27 0.14 1.51 1
 4 0 28 3.04 1.86 1
 4 0 29 2.54 1.55 1
 4 0 30 -0.17 5.49 1
 4 1 -30 1.46 1.57 1
 4 1 -29 4.76 1.56 1
 4 1 -28 5.73 1.51 1
 4 1 -27 2.05 1.53 1
 4 1 -26 14.54 1.44 1
 4 1 -25 3.33 1.34 1
 4 1 -24 3.37 1.47 1
 4 1 -23 22.73 2.1 1
 4 1 -22 40.03 2.14 1
 4 1 -21 36.83 2.44 1
 4 1 -20 29.58 1.53 1
 4 1 -19 111.14 4.12 1
 4 1 -18 235.34 7.37 1
 4 1 -17 133.81 4.45 1
 4 1 -16 104.25 3.47 1
 4 1 -15 17.14 1.12 1
 4 1 -14 354.9 10.77 1
 4 1 -13 206.35 6.38 1
 4 1 -12 1359.41 42.4 1
 4 1 -11 520.07 17.69 1
 4 1 -10 165.39 5.63 1
 4 1 -9 23.45 0.95 1
 4 1 -8 749.52 21.87 1
 4 1 -7 928.3 27.06 1
 4 1 -6 1803.63 54.76 1
 4 1 -5 1135.21 33.69 1
 4 1 -4 1688.24 52.36 1
 4 1 -3 310.33 9.62 1
 4 1 -2 421.24 11.7 1
 4 1 -1 3729.57 102.91 1
 4 1 0 5268.27 160.15 1
 4 1 1 3911.75 140.19 1
 4 1 2 420.55 14.34 1
 4 1 3 324.41 11.23 1
 4 1 4 1623.18 48.92 1
 4 1 5 1111.48 33.07 1
 4 1 6 1795.49 53 1
 4 1 7 938.19 29.37 1
 4 1 8 749.01 22.52 1
 4 1 9 21.67 1.02 1
 4 1 10 174.89 5.31 1
 4 1 11 521.17 16.19 1
 4 1 12 1420.38 41.77 1
 4 1 13 208.7 6.72 1
 4 1 14 363.54 11.03 1
 4 1 15 17.08 1.16 1
 4 1 16 106.71 4.56 1
 4 1 17 143.59 4.77 1
 4 1 18 236.93 7.49 1
 4 1 19 120.21 4.13 1
 4 1 20 30.34 1.62 1
 4 1 21 36.62 1.71 1
 4 1 22 44.83 2.05 1
 4 1 23 25.36 1.7 1
 4 1 24 6.17 1.32 1
 4 1 25 3.01 1.36 1
 4 1 26 14.73 1.67 1
 4 1 27 0.78 1.39 1
 4 1 28 0.83 1.5 1
 4 1 29 0.16 1.57 1
 4 1 30 0.92 1.65 1
 4 2 -30 6.45 1.66 1
 4 2 -29 6.76 2.06 1
 4 2 -28 2.8 1.45 1
 4 2 -27 7.68 1.46 1
 4 2 -26 2.96 1.49 1
 4 2 -25 3.78 1.49 1
 4 2 -24 7.51 1.34 1
 4 2 -23 36.99 1.81 1
 4 2 -22 44.4 2.17 1
 4 2 -21 47.41 2.36 1
 4 2 -20 67.82 2.6 1
 4 2 -19 37.26 1.77 1
 4 2 -18 122.61 4.37 1
 4 2 -17 177.48 5.71 1
 4 2 -16 168.15 5.42 1
 4 2 -15 53.46 2.07 1
 4 2 -14 97.78 3.25 1
 4 2 -13 30.52 1.51 1
 4 2 -12 56.49 2.03 1
 4 2 -11 385.62 11.57 1
 4 2 -10 1636.47 48.1 1
 4 2 -9 444.82 13.84 1
 4 2 -8 1255.19 38.82 1
 4 2 -7 1207.45 35.61 1
 4 2 -6 1471.11 43.68 1
 4 2 -5 654.75 18.73 1
 4 2 -4 118.24 3.55 1
 4 2 -3 2080.32 60.19 1
 4 2 -2 1946.19 55.68 1
 4 2 -1 1485.87 43.54 1
 4 2 0 749.22 22.34 1
 4 2 1 1471.94 50.43 1
 4 2 2 1890.5 61.95 1
 4 2 3 2151.59 70.28 1
 4 2 4 121.38 4.04 1
 4 2 5 681.61 20.28 1
 4 2 6 1468.05 44.66 1
 4 2 7 1191.52 35.72 1
 4 2 8 1213.18 35.63 1
 4 2 9 440 13.05 1
 4 2 10 1649.66 48.29 1
 4 2 11 382.24 11.55 1
 4 2 12 56.97 1.95 1
 4 2 13 30.64 1.41 1
 4 2 14 96.46 3.22 1
 4 2 15 55.94 2.46 1
 4 2 16 172.59 6.16 1
 4 2 17 172.67 6.67 1
 4 2 18 121.04 4.14 1
 4 2 19 37.22 1.86 1
 4 2 20 68.94 2.77 1
 4 2 21 42.72 1.85 1
 4 2 22 45.46 2.23 1
 4 2 23 38.75 2.31 1
 4 2 24 6.42 1.55 1
 4 2 25 4.04 1.29 1
 4 2 26 4.16 1.36 1
 4 2 27 8.49 1.44 1
 4 2 28 1.63 1.5 1
 4 2 29 7.59 1.66 1
 4 2 30 6.8 1.74 1
 4 3 -29 9.63 1.89 1
 4 3 -28 4.55 1.76 1
 4 3 -27 15.63 1.59 1
 4 3 -26 3.94 1.34 1
 4 3 -25 64.97 2.97 1
 4 3 -24 2.68 1.3 1
 4 3 -23 16.45 1.68 1
 4 3 -22 14.06 1.39 1
 4 3 -21 66.51 2.52 1
 4 3 -20 66.12 2.54 1
 4 3 -19 74.49 2.83 1
 4 3 -18 127.53 4.35 1
 4 3 -17 92.63 3.36 1
 4 3 -16 71.5 2.85 1
 4 3 -15 259.67 8.66 1
 4 3 -14 166.07 5.15 1
 4 3 -13 545.57 17.14 1
 4 3 -12 215.57 6.61 1
 4 3 -11 321.27 10.73 1
 4 3 -10 128.8 4.14 1
 4 3 -9 736.82 21.7 1
 4 3 -8 613.25 20.11 1
 4 3 -7 665.94 20.3 1
 4 3 -6 896.94 29.94 1
 4 3 -5 3209.45 99.44 1
 4 3 -4 325.21 11.33 1
 4 3 -3 946.05 28.36 1
 4 3 -2 302.65 9.05 1
 4 3 -1 1505.67 43.81 1
 4 3 0 254.39 7.59 1
 4 3 1 1535.07 45.58 1
 4 3 2 302.83 10.11 1
 4 3 3 945.35 28.5 1
 4 3 4 347.69 10.94 1
 4 3 5 3250.19 99.23 1
 4 3 6 920.97 28.25 1
 4 3 7 690.46 21.56 1
 4 3 8 616.93 19.12 1
 4 3 9 721.6 21.4 1
 4 3 10 127.61 4.24 1
 4 3 11 330.17 10 1
 4 3 12 219.23 6.83 1
 4 3 13 544.44 17.21 1
 4 3 14 162.38 5.75 1
 4 3 15 251.47 8.07 1
 4 3 16 73.37 2.64 1
 4 3 17 94.57 3.28 1
 4 3 18 126.19 4.55 1
 4 3 19 74.45 2.81 1
 4 3 20 68.17 2.64 1
 4 3 21 65.3 2.56 1
 4 3 22 18.53 1.62 1
 4 3 23 16.24 1.41 1
 4 3 24 4.13 1.32 1
 4 3 25 64.36 2.6 1
 4 3 26 6.45 1.33 1
 4 3 27 17.15 2.25 1
 4 3 28 3.69 1.53 1
 4 3 29 9.35 1.72 1
 4 4 -29 7.75 1.74 1
 4 4 -28 8.56 1.81 1
 4 4 -27 20.46 2.01 1
 4 4 -26 8.17 1.93 1
 4 4 -25 6.52 1.35 1
 4 4 -24 48.4 3.43 1
 4 4 -23 113.03 3.87 1
 4 4 -22 8.45 1.35 1
 4 4 -21 31.38 1.76 1
 4 4 -20 109.19 3.72 1
 4 4 -19 43.43 1.85 1
 4 4 -18 6.73 1.21 1
 4 4 -17 188.41 6.59 1
 4 4 -16 407.25 13.45 1
 4 4 -15 134.53 4.61 1
 4 4 -14 21.85 1.26 1
 4 4 -13 151.53 4.71 1
 4 4 -12 649.32 19.34 1
 4 4 -11 153.06 5.12 1
 4 4 -10 233.7 7.34 1
 4 4 -9 41.67 1.87 1
 4 4 -8 32.02 1.26 1
 4 4 -7 356.33 10.73 1
 4 4 -6 663.06 19.71 1
 4 4 -5 795.65 21.46 1
 4 4 -4 492.64 15.05 1
 4 4 -3 1052.43 31.95 1
 4 4 -2 836.74 24.48 1
 4 4 -1 1234.43 36.94 1
 4 4 0 774.3 23.23 1
 4 4 1 1249.28 36.89 1
 4 4 2 860.3 25.09 1
 4 4 3 1038.94 31.06 1
 4 4 4 495.12 14.84 1
 4 4 5 773.44 24.74 1
 4 4 6 678.73 20.84 1
 4 4 7 355.1 11.09 1
 4 4 8 34.16 1.46 1
 4 4 9 43.19 1.62 1
 4 4 10 231.83 7.73 1
 4 4 11 163.34 5.16 1
 4 4 12 639.17 20.62 1
 4 4 13 155.41 5.11 1
 4 4 14 22.37 2.12 1
 4 4 15 133.6 4.45 1
 4 4 16 418.19 12.94 1
 4 4 17 195.36 6.24 1
 4 4 18 5.86 1.43 1
 4 4 19 47.24 2.06 1
 4 4 20 112.65 4.37 1
 4 4 21 29.28 1.76 1
 4 4 22 6.14 1.44 1
 4 4 23 116.64 4.54 1
 4 4 24 48.09 2.46 1
 4 4 25 9.48 1.57 1
 4 4 26 8.05 1.43 1
 4 4 27 23.89 2.32 1
 4 4 28 8.3 1.8 1
 4 4 29 7.34 1.72 1
 4 5 -28 14.59 2.26 1
 4 5 -27 8.3 1.51 1
 4 5 -26 14 1.47 1
 4 5 -25 24.95 2.19 1
 4 5 -24 13.2 1.4 1
 4 5 -23 18.57 1.65 1
 4 5 -22 53.46 2.42 1
 4 5 -21 118.38 3.9 1
 4 5 -20 8.79 1.28 1
 4 5 -19 161.79 5.21 1
 4 5 -18 127.92 4.14 1
 4 5 -17 60 3.04 1
 4 5 -16 64.06 2.45 1
 4 5 -15 78.2 2.91 1
 4 5 -14 511.41 17.4 1
 4 5 -13 52 2.02 1
 4 5 -12 392.01 12.31 1
 4 5 -11 148.43 4.77 1
 4 5 -10 821.49 25.11 1
 4 5 -9 79.1 2.92 1
 4 5 -8 595.39 22.86 1
 4 5 -7 140.65 5.46 1
 4 5 -6 209.7 6.59 1
 4 5 -5 60.64 2.05 1
 4 5 -4 188.32 5.71 1
 4 5 -3 349.15 10.82 1
 4 5 -2 252.63 8.13 1
 4 5 -1 648.19 20.85 1
 4 5 0 9.31 0.7 1
 4 5 1 626.12 18.52 1
 4 5 2 258.24 7.76 1
 4 5 3 353.44 10.7 1
 4 5 4 191.44 5.97 1
 4 5 5 63.63 2.71 1
 4 5 6 213.11 6.42 1
 4 5 7 144.03 5.14 1
 4 5 8 595.46 21.5 1
 4 5 9 76.83 2.46 1
 4 5 10 806.91 23.94 1
 4 5 11 151.74 4.78 1
 4 5 12 387.77 13.3 1
 4 5 13 58.42 2.05 1
 4 5 14 502 15.49 1
 4 5 15 83.89 2.98 1
 4 5 16 70.01 2.55 1
 4 5 17 67.09 2.6 1
 4 5 18 129.97 4.48 1
 4 5 19 174.08 5.87 1
 4 5 20 7.76 1.4 1
 4 5 21 120.05 3.94 1
 4 5 22 52.46 2.62 1
 4 5 23 17.22 1.66 1
 4 5 24 11.52 1.43 1
 4 5 25 26.83 1.67 1
 4 5 26 10.72 1.78 1
 4 5 27 7.54 1.96 1
 4 5 28 10.89 1.69 1
 4 6 -27 0.22 2.02 1
 4 6 -26 7.46 1.83 1
 4 6 -25 17.73 1.51 1
 4 6 -24 8.05 1.62 1
 4 6 -23 30.66 1.66 1
 4 6 -22 15.97 1.42 1
 4 6 -21 91.3 3.19 1
 4 6 -20 22.94 1.55 1
 4 6 -19 82.04 3.18 1
 4 6 -18 78.88 3.36 1
 4 6 -17 264.95 8.38 1
 4 6 -16 63.38 2.88 1
 4 6 -15 48.12 2.04 1
 4 6 -14 184.6 6.08 1
 4 6 -13 25.48 1.7 1
 4 6 -12 135.42 5.04 1
 4 6 -11 57.36 2.91 1
 4 6 -10 301.64 9.95 1
 4 6 -9 227.05 7.87 1
 4 6 -8 160.72 5.14 1
 4 6 -7 94.98 3.09 1
 4 6 -6 410.12 12.54 1
 4 6 -5 290.63 8.82 1
 4 6 -4 38.37 1.58 1
 4 6 -3 422.79 13.11 1
 4 6 -2 114.94 3.68 1
 4 6 -1 736.49 21.85 1
 4 6 0 0.87 0.74 1
 4 6 1 744.76 22.55 1
 4 6 2 115.2 3.84 1
 4 6 3 425.49 13.02 1
 4 6 4 38.05 1.54 1
 4 6 5 292.64 8.88 1
 4 6 6 405.13 12.2 1
 4 6 7 94.81 2.96 1
 4 6 8 168.34 5.2 1
 4 6 9 238.76 7.41 1
 4 6 10 316.94 9.75 1
 4 6 11 56.76 2.64 1
 4 6 12 131.24 4.5 1
 4 6 13 26.96 1.57 1
 4 6 14 185.54 5.82 1
 4 6 15 49.84 1.98 1
 4 6 16 63.3 2.74 1
 4 6 17 264.05 9.52 1
 4 6 18 79.76 2.86 1
 4 6 19 81.34 3.31 1
 4 6 20 23.69 1.9 1
 4 6 21 95.27 3.32 1
 4 6 22 13.04 1.68 1
 4 6 23 33.22 1.68 1
 4 6 24 6.58 1.37 1
 4 6 25 17.86 1.56 1
 4 6 26 5.17 1.61 1
 4 6 27 7.6 1.79 1
 4 7 -26 3.32 2 1
 4 7 -25 9.56 1.96 1
 4 7 -24 2.7 1.92 1
 4 7 -23 23.48 1.63 1
 4 7 -22 4.48 1.31 1
 4 7 -21 26.73 1.96 1
 4 7 -20 16.87 1.78 1
 4 7 -19 73.96 2.89 1
 4 7 -18 5.56 1.46 1
 4 7 -17 53.91 3.04 1
 4 7 -16 124.75 4.2 1
 4 7 -15 184.12 6.09 1
 4 7 -14 5.59 1.29 1
 4 7 -13 158.89 5.91 1
 4 7 -12 107.1 3.76 1
 4 7 -11 46.15 3 1
 4 7 -10 85.01 3.38 1
 4 7 -9 85.17 3.42 1
 4 7 -8 35.94 1.74 1
 4 7 -7 35.76 1.85 1
 4 7 -6 217.68 7.3 1
 4 7 -5 263.19 8.38 1
 4 7 -4 191.83 6.11 1
 4 7 -3 222.5 6.9 1
 4 7 -2 56.07 2.16 1
 4 7 -1 355.28 10.87 1
 4 7 0 15.6 1.22 1
 4 7 1 357.66 10.96 1
 4 7 2 56.46 2.11 1
 4 7 3 214.3 6.72 1
 4 7 4 199 6.11 1
 4 7 5 258.12 8.06 1
 4 7 6 214.24 6.72 1
 4 7 7 39.56 1.7 1
 4 7 8 34.98 1.47 1
 4 7 9 87.91 2.84 1
 4 7 10 79.5 2.61 1
 4 7 11 47.54 1.86 1
 4 7 12 108 3.99 1
 4 7 13 169.57 5.5 1
 4 7 14 5.45 1.17 1
 4 7 15 177.67 5.6 1
 4 7 16 131.22 4.69 1
 4 7 17 64.5 2.45 1
 4 7 18 5.99 1.33 1
 4 7 19 68.61 2.59 1
 4 7 20 15.22 1.59 1
 4 7 21 25.94 1.8 1
 4 7 22 6.21 1.28 1
 4 7 23 24.86 1.59 1
 4 7 24 2.91 1.38 1
 4 7 25 14 2.42 1
 4 7 26 0.58 1.85 1
 4 8 -25 2.3 2.31 1
 4 8 -24 7.02 1.7 1
 4 8 -23 16.87 1.67 1
 4 8 -22 2.99 1.42 1
 4 8 -21 4.08 1.37 1
 4 8 -20 8.2 1.46 1
 4 8 -19 10.34 1.53 1
 4 8 -18 5.2 1.31 1
 4 8 -17 21.04 1.54 1
 4 8 -16 2.4 1.44 1
 4 8 -15 83.35 3.41 1
 4 8 -14 96.68 3.42 1
 4 8 -13 62.06 2.52 1
 4 8 -12 104.91 3.81 1
 4 8 -11 181.94 5.79 1
 4 8 -10 119.82 4.05 1
 4 8 -9 28.89 1.82 1
 4 8 -8 342.83 11.16 1
 4 8 -7 85.91 3 1
 4 8 -6 34.41 1.69 1
 4 8 -5 18.66 1.58 1
 4 8 -4 195.37 6.32 1
 4 8 -3 170.28 5.52 1
 4 8 -2 64.87 2.4 1
 4 8 -1 52.31 2.02 1
 4 8 0 25.76 1.41 1
 4 8 1 56.37 2.08 1
 4 8 2 69.79 2.55 1
 4 8 3 164.2 5.29 1
 4 8 4 200.29 6.59 1
 4 8 5 17.68 1.32 1
 4 8 6 33.14 1.56 1
 4 8 7 86.44 2.92 1
 4 8 8 331.37 10.37 1
 4 8 9 31.72 4.62 1
 4 8 10 123.96 4.27 1
 4 8 11 185.27 6.44 1
 4 8 12 109.93 3.63 1
 4 8 13 64.62 2.31 1
 4 8 14 95.88 3.2 1
 4 8 15 88.5 3.39 1
 4 8 16 4.29 1.29 1
 4 8 17 24.54 1.72 1
 4 8 18 3.44 1.22 1
 4 8 19 10.06 1.37 1
 4 8 20 5.41 1.52 1
 4 8 21 4.43 1.31 1
 4 8 22 3.39 1.36 1
 4 8 23 19.75 1.75 1
 4 8 24 4.08 1.85 1
 4 8 25 4.33 1.7 1
 4 9 -24 -0.91 5.19 1
 4 9 -23 1.84 1.79 1
 4 9 -22 11.4 2 1
 4 9 -21 16.58 1.68 1
 4 9 -20 3.24 1.69 1
 4 9 -19 7.26 1.42 1
 4 9 -18 11.45 1.4 1
 4 9 -17 6.08 1.34 1
 4 9 -16 10.06 1.34 1
 4 9 -15 11.8 1.37 1
 4 9 -14 5.82 1.56 1
 4 9 -13 24.82 1.8 1
 4 9 -12 52.57 2.55 1
 4 9 -11 5.57 1.47 1
 4 9 -10 116.5 4.32 1
 4 9 -9 82.53 3.26 1
 4 9 -8 60.43 2.32 1
 4 9 -7 60.94 2.61 1
 4 9 -6 107.41 3.81 1
 4 9 -5 20.6 1.39 1
 4 9 -4 113.2 4.44 1
 4 9 -3 69.99 3 1
 4 9 -2 10.84 1.23 1
 4 9 -1 7.94 1.11 1
 4 9 0 194.8 6.21 1
 4 9 1 8.88 1.18 1
 4 9 2 10.33 1.5 1
 4 9 3 72.06 2.63 1
 4 9 4 115.31 3.9 1
 4 9 5 21.54 1.6 1
 4 9 6 107.93 3.69 1
 4 9 7 60.77 2.38 1
 4 9 8 62.46 2.5 1
 4 9 9 78.58 2.82 1
 4 9 10 112.73 3.69 1
 4 9 11 3.36 1.16 1
 4 9 12 56.97 2.21 1
 4 9 13 30.66 1.57 1
 4 9 14 7.83 1.59 1
 4 9 15 12.51 1.4 1
 4 9 16 9.36 1.33 1
 4 9 17 5.41 1.7 1
 4 9 18 12.95 1.52 1
 4 9 19 6.05 1.45 1
 4 9 20 5.9 1.38 1
 4 9 21 17.45 1.71 1
 4 9 22 9.24 1.48 1
 4 9 23 0.7 2.01 1
 4 9 24 3.76 1.94 1
 4 10 -22 0.96 1.77 1
 4 10 -21 4.14 1.84 1
 4 10 -20 3.86 2.05 1
 4 10 -19 7.65 1.53 1
 4 10 -18 9.89 1.48 1
 4 10 -17 10.14 2.17 1
 4 10 -16 15.96 1.45 1
 4 10 -15 8.04 1.5 1
 4 10 -14 30.96 1.69 1
 4 10 -13 0.5 1.38 1
 4 10 -12 1.25 1.38 1
 4 10 -11 37.59 2.32 1
 4 10 -10 18.99 1.54 1
 4 10 -9 50.4 2.38 1
 4 10 -8 46.51 2.26 1
 4 10 -7 65.76 2.63 1
 4 10 -6 8.76 1.23 1
 4 10 -5 98.81 3.36 1
 4 10 -4 36.32 1.78 1
 4 10 -3 18.98 1.55 1
 4 10 -2 64.26 2.52 1
 4 10 -1 16.83 2.02 1
 4 10 0 9.18 1.32 1
 4 10 1 15.31 1.28 1
 4 10 2 64.28 2.47 1
 4 10 3 18.85 1.37 1
 4 10 4 35.86 1.66 1
 4 10 5 97.26 3.32 1
 4 10 6 8.18 1.3 1
 4 10 7 74.35 2.69 1
 4 10 8 44.93 1.99 1
 4 10 9 52.11 2.43 1
 4 10 10 20.1 1.49 1
 4 10 11 39.79 1.82 1
 4 10 12 3.37 1.65 1
 4 10 13 2.73 1.46 1
 4 10 14 28.77 1.65 1
 4 10 15 12.29 1.92 1
 4 10 16 14.3 1.4 1
 4 10 17 10.07 1.36 1
 4 10 18 6.06 1.39 1
 4 10 19 8.35 1.41 1
 4 10 20 4.78 1.84 1
 4 10 21 3.84 1.76 1
 4 10 22 1.62 2.2 1
 4 11 -20 1.73 1.65 1
 4 11 -19 0.33 1.55 1
 4 11 -18 4.57 1.55 1
 4 11 -17 1.67 1.55 1
 4 11 -16 11.27 1.56 1
 4 11 -15 8.25 1.43 1
 4 11 -14 8.94 1.38 1
 4 11 -13 10.29 1.39 1
 4 11 -12 20.99 1.58 1
 4 11 -11 1.85 1.4 1
 4 11 -10 3.69 1.35 1
 4 11 -9 18.46 1.56 1
 4 11 -8 7.71 1.35 1
 4 11 -7 27.18 1.85 1
 4 11 -6 16.9 1.75 1
 4 11 -5 1.46 1.47 1
 4 11 -4 7.78 1.7 1
 4 11 -3 68.02 3.47 1
 4 11 -2 21.38 2.07 1
 4 11 -1 25.39 1.81 1
 4 11 0 3.79 1.48 1
 4 11 1 26.65 1.67 1
 4 11 2 18.41 1.66 1
 4 11 3 67.25 2.64 1
 4 11 4 8.47 1.4 1
 4 11 5 2.85 1.48 1
 4 11 6 16.9 1.43 1
 4 11 7 26.31 2.03 1
 4 11 8 7.79 1.44 1
 4 11 9 17.91 1.46 1
 4 11 10 3.15 1.32 1
 4 11 11 0.43 1.67 1
 4 11 12 20.88 1.48 1
 4 11 13 10.81 1.33 1
 4 11 14 11.41 1.38 1
 4 11 15 10.51 1.37 1
 4 11 16 9.61 1.35 1
 4 11 17 2.71 1.32 1
 4 11 18 4.03 1.57 1
 4 11 19 0.99 1.91 1
 4 11 20 1.34 2.55 1
 4 12 -17 4.98 1.76 1
 4 12 -16 0.76 2.34 1
 4 12 -15 9.42 1.6 1
 4 12 -14 4.94 1.61 1
 4 12 -13 3.88 1.99 1
 4 12 -12 5.69 1.48 1
 4 12 -11 12.77 1.8 1
 4 12 -10 7.83 1.36 1
 4 12 -9 4.82 1.32 1
 4 12 -8 6.92 1.4 1
 4 12 -7 5.82 1.32 1
 4 12 -6 6.64 1.68 1
 4 12 -5 20.25 1.9 1
 4 12 -4 5.87 1.54 1
 4 12 -3 17.53 1.45 1
 4 12 -2 6.09 1.34 1
 4 12 -1 49.65 2.13 1
 4 12 0 2.24 1.45 1
 4 12 1 48.3 2.22 1
 4 12 2 6.21 1.47 1
 4 12 3 21.42 1.57 1
 4 12 4 7.19 1.41 1
 4 12 5 21.62 1.54 1
 4 12 6 5.98 1.41 1
 4 12 7 5.82 1.45 1
 4 12 8 7.5 1.49 1
 4 12 9 1.34 1.4 1
 4 12 10 10.56 1.67 1
 4 12 11 12.6 1.59 1
 4 12 12 2.03 1.33 1
 4 12 13 4.8 1.33 1
 4 12 14 6.65 1.65 1
 4 12 15 6.88 1.53 1
 4 12 16 3.53 1.67 1
 4 12 17 -2.42 5.6 1
 4 13 -14 2.15 1.63 1
 4 13 -13 4.4 1.88 1
 4 13 -12 2.56 1.93 1
 4 13 -11 3.85 1.59 1
 4 13 -10 1.36 1.63 1
 4 13 -9 13.28 1.52 1
 4 13 -8 4.6 1.97 1
 4 13 -7 3.9 1.47 1
 4 13 -6 3.72 1.37 1
 4 13 -5 9.72 1.41 1
 4 13 -4 5.39 1.38 1
 4 13 -3 14.37 1.51 1
 4 13 -2 1.8 1.7 1
 4 13 -1 9.73 1.42 1
 4 13 0 2.08 1.38 1
 4 13 1 11.28 1.44 1
 4 13 2 1.86 1.37 1
 4 13 3 16.54 1.55 1
 4 13 4 5.22 1.43 1
 4 13 5 8.13 1.42 1
 4 13 6 5.46 1.57 1
 4 13 7 4.62 1.47 1
 4 13 8 6.65 1.51 1
 4 13 9 11.14 1.64 1
 4 13 10 0.88 1.43 1
 4 13 11 4.51 1.74 1
 4 13 12 1.69 1.54 1
 4 13 13 2.86 1.76 1
 4 13 14 2 2.09 1
 4 14 -10 -1.16 8.43 1
 4 14 -9 2.23 1.8 1
 4 14 -8 2.88 2.05 1
 4 14 -7 2.67 1.78 1
 4 14 -6 4.59 1.59 1
 4 14 -5 5.94 1.6 1
 4 14 -4 3.51 1.52 1
 4 14 -3 3.46 1.61 1
 4 14 -2 8.58 1.78 1
 4 14 -1 3.66 1.5 1
 4 14 0 -0.13 5.71 1
 4 14 1 3.07 1.56 1
 4 14 2 9.42 1.72 1
 4 14 3 2.01 1.54 1
 4 14 4 2.24 1.7 1
 4 14 5 2.29 1.7 1
 4 14 6 6.11 1.54 1
 4 14 7 4.01 1.54 1
 4 14 8 1.64 1.68 1
 4 14 9 2.76 2.23 1
 4 14 10 3.23 1.86 1
 5 0 1 3592.92 108.41 1
 5 0 2 1683.76 52.02 1
 5 0 3 651.5 18.86 1
 5 0 4 5333.53 170.87 1
 5 0 5 2632.59 75.92 1
 5 0 6 31.79 1.17 1
 5 0 7 105.31 3.3 1
 5 0 8 1615.92 46.77 1
 5 0 9 965 29.76 1
 5 0 10 103.04 3.2 1
 5 0 11 249.44 7.67 1
 5 0 12 5.8 0.77 1
 5 0 13 688.05 21.06 1
 5 0 14 8.7 0.93 1
 5 0 15 147.75 5.09 1
 5 0 16 73.07 2.83 1
 5 0 17 369.83 11.52 1
 5 0 18 3.2 1.25 1
 5 0 19 108.38 3.63 1
 5 0 20 13.39 1.27 1
 5 0 21 52.96 2.59 1
 5 0 22 7.25 1.41 1
 5 0 23 58.43 2.41 1
 5 0 24 1.38 1.55 1
 5 0 25 2.63 1.28 1
 5 0 26 1.26 1.29 1
 5 0 27 16.4 1.68 1
 5 0 28 0.41 1.7 1
 5 0 29 2.75 1.85 1
 5 1 -29 9.58 2.09 1
 5 1 -28 5.8 1.57 1
 5 1 -27 7.72 1.47 1
 5 1 -26 -0.04 5.45 1
 5 1 -25 34.94 2.21 1
 5 1 -24 23.14 1.52 1
 5 1 -23 5.83 1.32 1
 5 1 -22 3.56 1.4 1
 5 1 -21 76.53 2.93 1
 5 1 -20 186.63 6.63 1
 5 1 -19 59.55 2.27 1
 5 1 -18 28.81 1.64 1
 5 1 -17 73.92 2.58 1
 5 1 -16 401.79 12.67 1
 5 1 -15 213.76 6.84 1
 5 1 -14 170.14 5.78 1
 5 1 -13 326.69 10.15 1
 5 1 -12 267.73 8.34 1
 5 1 -11 407.12 12.45 1
 5 1 -10 51.49 1.86 1
 5 1 -9 912.88 27.42 1
 5 1 -8 638.89 19.5 1
 5 1 -7 1007.15 29.21 1
 5 1 -6 2879.81 83.63 1
 5 1 -5 96.14 3.56 1
 5 1 -4 1145.41 33.38 1
 5 1 -3 2560.98 71.09 1
 5 1 -2 6707.52 188.89 1
 5 1 -1 1620.3 46.78 1
 5 1 0 4037.1 122.41 1
 5 1 1 1642.01 68.55 1
 5 1 2 6696.57 282.56 1
 5 1 3 2556.47 81.64 1
 5 1 4 1143.04 34.06 1
 5 1 5 102.35 3.15 1
 5 1 6 2841.95 87.17 1
 5 1 7 1026.33 32.96 1
 5 1 8 636.48 18.77 1
 5 1 9 915.77 28.32 1
 5 1 10 53.6 2.2 1
 5 1 11 393.37 12.06 1
 5 1 12 275.35 8.28 1
 5 1 13 336.3 10.08 1
 5 1 14 170.83 5.35 1
 5 1 15 213.08 7.68 1
 5 1 16 407.87 14.2 1
 5 1 17 79.08 2.8 1
 5 1 18 28.64 1.64 1
 5 1 19 60.16 2.43 1
 5 1 20 183.3 5.83 1
 5 1 21 82.16 4.19 1
 5 1 22 3.13 1.31 1
 5 1 23 5.89 1.38 1
 5 1 24 27.27 1.79 1
 5 1 25 33.2 1.82 1
 5 1 26 3.58 1.44 1
 5 1 27 9.36 1.69 1
 5 1 28 7.41 1.53 1
 5 1 29 7.58 1.86 1
 5 2 -29 2.34 1.65 1
 5 2 -28 11.09 1.58 1
 5 2 -27 6.67 1.77 1
 5 2 -26 23.37 1.6 1
 5 2 -25 6.44 1.35 1
 5 2 -24 16.16 1.66 1
 5 2 -23 27.87 1.75 1
 5 2 -22 61.29 2.4 1
 5 2 -21 8.67 1.62 1
 5 2 -20 9.04 1.26 1
 5 2 -19 27.6 1.55 1
 5 2 -18 245.99 7.83 1
 5 2 -17 18.6 1.22 1
 5 2 -16 13.41 1.05 1
 5 2 -15 56.56 2.26 1
 5 2 -14 744.72 23.45 1
 5 2 -13 7.12 0.86 1
 5 2 -12 151.88 4.77 1
 5 2 -11 398.25 12.1 1
 5 2 -10 1377.67 41.82 1
 5 2 -9 221.68 7.2 1
 5 2 -8 647.51 19.25 1
 5 2 -7 160.26 5.02 1
 5 2 -6 174.83 5.5 1
 5 2 -5 619.85 18.47 1
 5 2 -4 2042.02 57.63 1
 5 2 -3 325.02 9.45 1
 5 2 -2 2237.64 72.13 1
 5 2 -1 455.64 13.77 1
 5 2 0 2225.45 67.37 1
 5 2 1 465.4 14.79 1
 5 2 2 2362.58 99.09 1
 5 2 3 339.03 13.4 1
 5 2 4 2048.15 66.93 1
 5 2 5 611.79 19.98 1
 5 2 6 174.14 6.45 1
 5 2 7 154.3 4.7 1
 5 2 8 631.94 19.11 1
 5 2 9 221.21 6.88 1
 5 2 10 1343.42 41.34 1
 5 2 11 400.09 12.18 1
 5 2 12 152.99 5.42 1
 5 2 13 6.9 0.91 1
 5 2 14 752.05 25.07 1
 5 2 15 55.45 2.16 1
 5 2 16 12.68 1.12 1
 5 2 17 19.32 1.7 1
 5 2 18 241.69 8.06 1
 5 2 19 29.45 1.56 1
 5 2 20 9.4 1.28 1
 5 2 21 7.71 1.33 1
 5 2 22 62.51 2.36 1
 5 2 23 26.84 1.74 1
 5 2 24 18.22 1.51 1
 5 2 25 4.44 1.31 1
 5 2 26 24.51 1.88 1
 5 2 27 8.38 1.48 1
 5 2 28 11.91 1.6 1
 5 2 29 3.49 1.82 1
 5 3 -29 0.17 1.58 1
 5 3 -28 10.86 1.58 1
 5 3 -27 -0.94 5.74 1
 5 3 -26 25.85 1.92 1
 5 3 -25 7.51 1.58 1
 5 3 -24 13.89 1.53 1
 5 3 -23 2.36 1.53 1
 5 3 -22 54.08 2.42 1
 5 3 -21 12.47 1.35 1
 5 3 -20 4.13 1.19 1
 5 3 -19 34.37 1.68 1
 5 3 -18 34.7 1.73 1
 5 3 -17 7.49 1.09 1
 5 3 -16 98.11 3.28 1
 5 3 -15 194.2 6.05 1
 5 3 -14 319.3 10.3 1
 5 3 -13 27.49 1.27 1
 5 3 -12 928.58 27.49 1
 5 3 -11 147.37 4.61 1
 5 3 -10 960.91 28.52 1
 5 3 -9 14 0.84 1
 5 3 -8 1729.74 47.34 1
 5 3 -7 1142.69 34.12 1
 5 3 -6 440.71 13.9 1
 5 3 -5 679.64 19.87 1
 5 3 -4 658.1 19.9 1
 5 3 -3 719.14 21.25 1
 5 3 -2 375.18 11.45 1
 5 3 -1 433.23 12.93 1
 5 3 0 907.89 27.03 1
 5 3 1 433.37 13.06 1
 5 3 2 386 11.84 1
 5 3 3 724.72 21.07 1
 5 3 4 634.57 19.55 1
 5 3 5 660.79 20.22 1
 5 3 6 458.58 14.2 1
 5 3 7 1142.52 36.29 1
 5 3 8 1774.99 56.98 1
 5 3 9 13.64 1.02 1
 5 3 10 931.9 27.98 1
 5 3 11 147.07 4.38 1
 5 3 12 938.51 28.29 1
 5 3 13 27.73 1.58 1
 5 3 14 323.96 10.47 1
 5 3 15 193.8 7.45 1
 5 3 16 95.57 3.6 1
 5 3 17 8.39 1.17 1
 5 3 18 32.65 1.7 1
 5 3 19 39.76 1.85 1
 5 3 20 4.97 1.33 1
 5 3 21 15.49 1.44 1
 5 3 22 57.67 2.53 1
 5 3 23 3.75 1.39 1
 5 3 24 12.47 1.49 1
 5 3 25 6.62 1.32 1
 5 3 26 29 1.7 1
 5 3 27 2.8 1.45 1
 5 3 28 11.09 1.74 1
 5 3 29 0.64 1.65 1
 5 4 -28 3.23 1.64 1
 5 4 -27 7.42 1.63 1
 5 4 -26 3.42 1.37 1
 5 4 -25 2.37 1.37 1
 5 4 -24 27.17 2.28 1
 5 4 -23 13.38 2.1 1
 5 4 -22 2.38 1.3 1
 5 4 -21 2.12 1.24 1
 5 4 -20 92.11 3.77 1
 5 4 -19 11.94 1.26 1
 5 4 -18 6.42 1.18 1
 5 4 -17 14.32 1.27 1
 5 4 -16 78.76 2.94 1
 5 4 -15 9.84 1.02 1
 5 4 -14 41.68 1.65 1
 5 4 -13 44.12 1.84 1
 5 4 -12 118.22 3.74 1
 5 4 -11 30.25 1.37 1
 5 4 -10 179.09 5.67 1
 5 4 -9 354.15 10.89 1
 5 4 -8 418 13.03 1
 5 4 -7 347.82 11.09 1
 5 4 -6 167.72 5.43 1
 5 4 -5 736.82 20.91 1
 5 4 -4 459.16 14.05 1
 5 4 -3 1626.72 52.6 1
 5 4 -2 24.45 1.01 1
 5 4 -1 200.77 6.07 1
 5 4 0 409.21 12.14 1
 5 4 1 204.49 6.18 1
 5 4 2 22.28 0.95 1
 5 4 3 1602.41 46.56 1
 5 4 4 453.17 14.44 1
 5 4 5 756.3 26.21 1
 5 4 6 169.84 5.91 1
 5 4 7 357.05 10.91 1
 5 4 8 427.45 13.42 1
 5 4 9 348.95 11.02 1
 5 4 10 180.85 5.77 1
 5 4 11 35.1 1.49 1
 5 4 12 122.44 3.83 1
 5 4 13 42.29 1.96 1
 5 4 14 40.45 1.79 1
 5 4 15 10.55 1.17 1
 5 4 16 77.8 2.91 1
 5 4 17 14.47 1.22 1
 5 4 18 5.96 1.59 1
 5 4 19 10.9 1.33 1
 5 4 20 101.54 3.92 1
 5 4 21 5.73 1.28 1
 5 4 22 2.76 1.32 1
 5 4 23 15.44 1.47 1
 5 4 24 30.66 1.63 1
 5 4 25 6.93 1.42 1
 5 4 26 3.87 1.4 1
 5 4 27 6 1.61 1
 5 4 28 5.96 2.12 1
 5 5 -27 2.42 1.64 1
 5 5 -26 2.87 1.38 1
 5 5 -25 3.6 1.68 1
 5 5 -24 1.47 1.31 1
 5 5 -23 3.59 1.27 1
 5 5 -22 16.08 1.55 1
 5 5 -21 13.03 1.47 1
 5 5 -20 26.16 2.2 1
 5 5 -19 18.02 1.46 1
 5 5 -18 74.8 2.89 1
 5 5 -17 6.06 1.19 1
 5 5 -16 55.07 2.19 1
 5 5 -15 18.33 1.72 1
 5 5 -14 119.06 4.1 1
 5 5 -13 76.95 2.77 1
 5 5 -12 0.06 1.03 1
 5 5 -11 78.27 2.92 1
 5 5 -10 86.01 2.9 1
 5 5 -9 70.4 2.47 1
 5 5 -8 295.88 9.19 1
 5 5 -7 172.12 5.92 1
 5 5 -6 272.78 9.24 1
 5 5 -5 484.71 17.15 1
 5 5 -4 478.66 14.64 1
 5 5 -3 121.97 3.83 1
 5 5 -2 227.37 7.02 1
 5 5 -1 1659.77 49.2 1
 5 5 0 1.94 0.67 1
 5 5 1 1665.72 49.86 1
 5 5 2 223.33 6.89 1
 5 5 3 126.08 3.93 1
 5 5 4 484.3 14.82 1
 5 5 5 497.57 14.67 1
 5 5 6 274.35 8.82 1
 5 5 7 177.67 5.78 1
 5 5 8 310.54 9.94 1
 5 5 9 68.49 2.38 1
 5 5 10 87.14 3.08 1
 5 5 11 77.26 2.87 1
 5 5 12 1.32 1 1
 5 5 13 70.47 2.35 1
 5 5 14 124.8 4.36 1
 5 5 15 16.45 1.12 1
 5 5 16 53.49 2.39 1
 5 5 17 8.39 1.72 1
 5 5 18 74.33 2.81 1
 5 5 19 15.6 1.44 1
 5 5 20 28.65 1.76 1
 5 5 21 14.13 1.62 1
 5 5 22 17.08 1.49 1
 5 5 23 4.05 1.38 1
 5 5 24 4.24 1.31 1
 5 5 25 3.22 1.39 1
 5 5 26 0.63 1.43 1
 5 5 27 4.67 1.58 1
 5 6 -27 2.65 1.8 1
 5 6 -26 8.59 1.84 1
 5 6 -25 7.4 1.51 1
 5 6 -24 1.76 1.37 1
 5 6 -23 0.8 1.28 1
 5 6 -22 2.49 1.27 1
 5 6 -21 2.19 1.44 1
 5 6 -20 5.71 1.88 1
 5 6 -19 4.23 1.59 1
 5 6 -18 54.56 2.37 1
 5 6 -17 5.86 1.28 1
 5 6 -16 27.3 1.9 1
 5 6 -15 3.22 1.27 1
 5 6 -14 101.53 3.75 1
 5 6 -13 41.56 2.1 1
 5 6 -12 54.89 2.45 1
 5 6 -11 91.01 3.89 1
 5 6 -10 1.96 1.07 1
 5 6 -9 193.58 6.41 1
 5 6 -8 6.88 1 1
 5 6 -7 30.61 1.39 1
 5 6 -6 272.5 9.58 1
 5 6 -5 43.63 1.6 1
 5 6 -4 75.32 2.45 1
 5 6 -3 683.44 20.19 1
 5 6 -2 234.38 7.14 1
 5 6 -1 454.09 15.44 1
 5 6 0 140.9 4.57 1
 5 6 1 456.34 14.09 1
 5 6 2 225.2 7.08 1
 5 6 3 684.86 20.67 1
 5 6 4 77.74 3.01 1
 5 6 5 43.35 1.58 1
 5 6 6 275.51 8.52 1
 5 6 7 25.6 2.07 1
 5 6 8 8.35 1.05 1
 5 6 9 196.4 6.48 1
 5 6 10 2.49 1.03 1
 5 6 11 95.07 4.08 1
 5 6 12 56.78 2.29 1
 5 6 13 39.95 2.19 1
 5 6 14 102.38 3.75 1
 5 6 15 5.43 1.03 1
 5 6 16 28.13 2.01 1
 5 6 17 5.41 1.17 1
 5 6 18 54.69 2.16 1
 5 6 19 4.57 1.4 1
 5 6 20 2 1.36 1
 5 6 21 0.67 1.51 1
 5 6 22 5.27 1.46 1
 5 6 23 2.17 1.3 1
 5 6 24 0.21 1.38 1
 5 6 25 6.66 2.28 1
 5 6 26 7.14 1.57 1
 5 6 27 1.87 1.9 1
 5 7 -26 9.5 2.49 1
 5 7 -25 4.07 1.71 1
 5 7 -24 6.71 1.88 1
 5 7 -23 10.57 1.45 1
 5 7 -22 3.5 1.48 1
 5 7 -21 9.4 1.69 1
 5 7 -20 1.69 1.27 1
 5 7 -19 10.15 1.47 1
 5 7 -18 10.27 1.51 1
 5 7 -17 2.69 1.55 1
 5 7 -16 44.37 2.11 1
 5 7 -15 4.52 1.28 1
 5 7 -14 103.62 4.6 1
 5 7 -13 10.62 1.3 1
 5 7 -12 152.62 5.09 1
 5 7 -11 37.67 1.95 1
 5 7 -10 145.26 5.37 1
 5 7 -9 35.5 2.07 1
 5 7 -8 207.1 6.71 1
 5 7 -7 250.64 8.52 1
 5 7 -6 63 2.3 1
 5 7 -5 162.84 5.42 1
 5 7 -4 142.45 4.74 1
 5 7 -3 51.07 2.32 1
 5 7 -2 44.42 1.9 1
 5 7 -1 144.66 4.69 1
 5 7 0 87.87 3.04 1
 5 7 1 144.06 4.68 1
 5 7 2 43.19 1.68 1
 5 7 3 57.43 2.41 1
 5 7 4 146.24 4.77 1
 5 7 5 165.38 5.26 1
 5 7 6 68.69 2.54 1
 5 7 7 260.17 8 1
 5 7 8 206.22 6.74 1
 5 7 9 30.96 1.37 1
 5 7 10 138.56 6.5 1
 5 7 11 35.51 2.58 1
 5 7 12 142.33 6.73 1
 5 7 13 9.88 1.05 1
 5 7 14 109.49 4.07 1
 5 7 15 9.01 1.17 1
 5 7 16 45.57 1.83 1
 5 7 17 4.97 1.26 1
 5 7 18 11.39 1.31 1
 5 7 19 9.11 1.36 1
 5 7 20 3.44 1.31 1
 5 7 21 13.24 1.47 1
 5 7 22 3.08 1.58 1
 5 7 23 7.11 1.41 1
 5 7 24 7.06 1.94 1
 5 7 25 6.33 1.67 1
 5 7 26 5.26 2.79 1
 5 8 -24 6.79 1.77 1
 5 8 -23 17.32 1.79 1
 5 8 -22 5.5 1.42 1
 5 8 -21 6.02 1.38 1
 5 8 -20 7.03 1.32 1
 5 8 -19 31.43 1.87 1
 5 8 -18 3.69 1.28 1
 5 8 -17 7.99 1.46 1
 5 8 -16 11.57 1.55 1
 5 8 -15 22.24 1.88 1
 5 8 -14 17.14 1.55 1
 5 8 -13 7.61 1.51 1
 5 8 -12 144.1 5.46 1
 5 8 -11 7.85 1.23 1
 5 8 -10 113.03 4.11 1
 5 8 -9 77.49 2.76 1
 5 8 -8 148.66 5.35 1
 5 8 -7 25.48 1.56 1
 5 8 -6 140.93 4.75 1
 5 8 -5 211.94 7.08 1
 5 8 -4 27.35 1.51 1
 5 8 -3 90.71 3.04 1
 5 8 -2 32.4 1.7 1
 5 8 -1 76.36 2.63 1
 5 8 0 14.75 1.07 1
 5 8 1 77.77 2.62 1
 5 8 2 33.52 1.5 1
 5 8 3 87.93 3.23 1
 5 8 4 25.08 1.41 1
 5 8 5 212.12 6.56 1
 5 8 6 141.47 4.53 1
 5 8 7 28.13 1.56 1
 5 8 8 145.2 4.72 1
 5 8 9 78.6 2.89 1
 5 8 10 114.71 4.09 1
 5 8 11 6.2 1.37 1
 5 8 12 143.77 4.66 1
 5 8 13 8.44 1.11 1
 5 8 14 18.16 1.34 1
 5 8 15 24.5 1.4 1
 5 8 16 14.14 1.31 1
 5 8 17 8.1 1.29 1
 5 8 18 3.24 1.24 1
 5 8 19 34.18 1.68 1
 5 8 20 9.63 1.39 1
 5 8 21 4.23 1.31 1
 5 8 22 5.85 1.64 1
 5 8 23 13.41 1.77 1
 5 8 24 6.21 1.82 1
 5 9 -23 3.87 1.85 1
 5 9 -22 6.11 1.59 1
 5 9 -21 21.57 1.89 1
 5 9 -20 11.21 1.77 1
 5 9 -19 4.25 1.36 1
 5 9 -18 12.14 1.54 1
 5 9 -17 33.18 1.69 1
 5 9 -16 3.51 1.27 1
 5 9 -15 16.07 1.49 1
 5 9 -14 4.43 1.34 1
 5 9 -13 27.9 1.85 1
 5 9 -12 9.47 1.75 1
 5 9 -11 38.25 2.25 1
 5 9 -10 11.87 1.45 1
 5 9 -9 7.84 1.24 1
 5 9 -8 30.41 1.8 1
 5 9 -7 115.61 4 1
 5 9 -6 36.29 1.73 1
 5 9 -5 29.52 1.57 1
 5 9 -4 33.55 1.66 1
 5 9 -3 174.35 5.72 1
 5 9 -2 55.96 2.19 1
 5 9 -1 134.32 5.19 1
 5 9 0 130.36 4.26 1
 5 9 1 134.85 4.42 1
 5 9 2 51.82 2.04 1
 5 9 3 174.2 6.16 1
 5 9 4 33.12 1.62 1
 5 9 5 32.82 1.91 1
 5 9 6 31.62 1.63 1
 5 9 7 113.69 4.11 1
 5 9 8 29.48 2.1 1
 5 9 9 5.58 1.21 1
 5 9 10 12.78 1.23 1
 5 9 11 40.46 1.77 1
 5 9 12 9.26 1.23 1
 5 9 13 30.09 1.64 1
 5 9 14 1.85 1.29 1
 5 9 15 13.74 1.36 1
 5 9 16 4.29 1.32 1
 5 9 17 33.77 2.37 1
 5 9 18 13.42 1.71 1
 5 9 19 4.76 1.5 1
 5 9 20 9.58 1.55 1
 5 9 21 23.94 1.92 1
 5 9 22 3.26 1.72 1
 5 9 23 3.3 1.99 1
 5 10 -21 4.01 2 1
 5 10 -20 5.9 1.88 1
 5 10 -19 12.23 1.97 1
 5 10 -18 3.19 1.5 1
 5 10 -17 20.26 1.98 1
 5 10 -16 2.8 1.3 1
 5 10 -15 13.54 1.37 1
 5 10 -14 5.99 1.44 1
 5 10 -13 44.2 2.19 1
 5 10 -12 18.43 1.51 1
 5 10 -11 10.08 1.38 1
 5 10 -10 36.58 2.48 1
 5 10 -9 54.57 2.34 1
 5 10 -8 19.93 1.47 1
 5 10 -7 0.65 1.44 1
 5 10 -6 64.43 2.97 1
 5 10 -5 95.17 3.53 1
 5 10 -4 16.48 1.43 1
 5 10 -3 46.13 2 1
 5 10 -2 52.6 2.74 1
 5 10 -1 112.15 3.93 1
 5 10 0 8.7 1.26 1
 5 10 1 110.54 3.78 1
 5 10 2 52.99 2.6 1
 5 10 3 41.63 1.81 1
 5 10 4 17.41 1.58 1
 5 10 5 92.06 3.22 1
 5 10 6 67.83 2.61 1
 5 10 7 1.53 1.37 1
 5 10 8 18.42 1.83 1
 5 10 9 56.58 2.35 1
 5 10 10 32.17 2.98 1
 5 10 11 8.99 1.22 1
 5 10 12 18.17 1.4 1
 5 10 13 42.5 1.92 1
 5 10 14 4.6 1.27 1
 5 10 15 13.13 1.4 1
 5 10 16 6.67 1.63 1
 5 10 17 21.53 1.6 1
 5 10 18 2.48 1.46 1
 5 10 19 13.37 2.23 1
 5 10 20 6.86 2.11 1
 5 10 21 6.22 1.69 1
 5 11 -19 2.29 2.13 1
 5 11 -18 4.62 1.6 1
 5 11 -17 2.92 1.56 1
 5 11 -16 8.28 1.83 1
 5 11 -15 11.92 1.59 1
 5 11 -14 0.95 1.38 1
 5 11 -13 4.17 1.38 1
 5 11 -12 9.53 1.71 1
 5 11 -11 19.22 1.74 1
 5 11 -10 12.7 1.82 1
 5 11 -9 12.44 1.41 1
 5 11 -8 5.09 1.76 1
 5 11 -7 17.66 2.11 1
 5 11 -6 58.96 2.8 1
 5 11 -5 15.7 1.76 1
 5 11 -4 3.9 1.38 1
 5 11 -3 23.07 2.09 1
 5 11 -2 66.85 2.62 1
 5 11 -1 13.66 1.41 1
 5 11 0 6.02 1.32 1
 5 11 1 16.28 1.45 1
 5 11 2 70.87 2.65 1
 5 11 3 21.64 1.6 1
 5 11 4 2.79 1.45 1
 5 11 5 14.45 1.32 1
 5 11 6 58.85 2.25 1
 5 11 7 19.84 1.68 1
 5 11 8 6.23 1.28 1
 5 11 9 12.87 1.38 1
 5 11 10 10.75 1.46 1
 5 11 11 20.69 1.7 1
 5 11 12 9.08 1.4 1
 5 11 13 4.76 1.54 1
 5 11 14 1.3 1.88 1
 5 11 15 17.19 1.6 1
 5 11 16 7.99 1.5 1
 5 11 17 1.46 1.62 1
 5 11 18 3.28 1.76 1
 5 11 19 5.49 1.91 1
 5 12 -16 2.92 2.16 1
 5 12 -15 1.77 2.2 1
 5 12 -14 13.55 1.72 1
 5 12 -13 2.16 1.54 1
 5 12 -12 1.57 1.91 1
 5 12 -11 8.37 1.5 1
 5 12 -10 4.13 1.98 1
 5 12 -9 2.6 1.32 1
 5 12 -8 10.9 1.36 1
 5 12 -7 14.81 1.39 1
 5 12 -6 3.39 1.34 1
 5 12 -5 3.04 1.7 1
 5 12 -4 47.17 2.63 1
 5 12 -3 4.93 1.45 1
 5 12 -2 1.32 1.4 1
 5 12 -1 0.5 1.37 1
 5 12 0 70.09 2.77 1
 5 12 1 0.78 1.48 1
 5 12 2 3.09 1.63 1
 5 12 3 4.91 1.36 1
 5 12 4 51.08 2.34 1
 5 12 5 0.96 1.31 1
 5 12 6 3.9 1.32 1
 5 12 7 17 1.48 1
 5 12 8 8.81 1.46 1
 5 12 9 2.1 1.36 1
 5 12 10 2.36 1.85 1
 5 12 11 9.31 2.05 1
 5 12 12 -0.87 5.45 1
 5 12 13 4.72 1.55 1
 5 12 14 13.45 1.9 1
 5 12 15 1.72 1.64 1
 5 12 16 2.45 2.2 1
 5 13 -13 1.69 2.45 1
 5 13 -12 10.61 1.97 1
 5 13 -11 4.08 2.09 1
 5 13 -10 5.04 1.6 1
 5 13 -9 3.58 1.54 1
 5 13 -8 4.17 1.52 1
 5 13 -7 5.19 1.64 1
 5 13 -6 3.73 1.62 1
 5 13 -5 3.24 1.4 1
 5 13 -4 0.41 1.46 1
 5 13 -3 2.24 1.59 1
 5 13 -2 4.39 1.53 1
 5 13 -1 1.16 1.48 1
 5 13 0 3.22 1.71 1
 5 13 1 3.06 1.37 1
 5 13 2 4.43 1.5 1
 5 13 3 1.87 1.43 1
 5 13 4 1.38 1.51 1
 5 13 5 2.01 1.48 1
 5 13 6 0.82 1.48 1
 5 13 7 3.83 1.63 1
 5 13 8 3.7 1.99 1
 5 13 9 3.46 1.76 1
 5 13 10 4.45 1.58 1
 5 13 11 4.39 2.09 1
 5 13 12 8.73 1.66 1
 5 13 13 1.31 2.1 1
 5 14 -7 2.83 1.77 1
 5 14 -6 5.72 1.78 1
 5 14 -5 -0.89 6.34 1
 5 14 -4 2.92 1.75 1
 5 14 -3 4.82 1.75 1
 5 14 -2 3.53 1.59 1
 5 14 -1 4.27 1.65 1
 5 14 0 2.79 1.58 1
 5 14 1 1.81 1.52 1
 5 14 2 0.88 1.66 1
 5 14 3 3.43 1.57 1
 5 14 4 1.24 2.12 1
 5 14 5 -0.94 6.42 1
 5 14 6 3.21 2.05 1
 5 14 7 -2.05 7.72 1
 6 0 0 9.02 0.92 1
 6 0 1 1064.49 32.73 1
 6 0 2 229.89 7.27 1
 6 0 3 21.53 0.82 1
 6 0 4 232.12 6.95 1
 6 0 5 877.15 25.94 1
 6 0 6 155.8 4.69 1
 6 0 7 1381.58 44.49 1
 6 0 8 280.46 8.41 1
 6 0 9 135.76 4.26 1
 6 0 10 119.64 3.7 1
 6 0 11 738.77 22.08 1
 6 0 12 84.23 2.73 1
 6 0 13 9.49 0.97 1
 6 0 14 34.23 1.58 1
 6 0 15 1.75 1.16 1
 6 0 16 212.27 6.75 1
 6 0 17 90.65 5.14 1
 6 0 18 46.21 1.93 1
 6 0 19 124.42 4.53 1
 6 0 20 0.72 1.29 1
 6 0 21 60.37 2.31 1
 6 0 22 24.47 1.73 1
 6 0 23 18.38 1.45 1
 6 0 24 34.46 1.79 1
 6 0 25 7.55 1.45 1
 6 0 26 2.83 1.38 1
 6 0 27 5.42 1.55 1
 6 0 28 11.99 1.82 1
 6 1 -28 2.96 1.61 1
 6 1 -27 4.26 1.49 1
 6 1 -26 30.37 1.76 1
 6 1 -25 6.83 1.4 1
 6 1 -24 17.74 1.45 1
 6 1 -23 37.09 1.86 1
 6 1 -22 24.4 2.41 1
 6 1 -21 26.93 1.55 1
 6 1 -20 104.09 3.63 1
 6 1 -19 43.08 1.92 1
 6 1 -18 39.7 1.79 1
 6 1 -17 107.8 3.74 1
 6 1 -16 33.33 2.6 1
 6 1 -15 42.32 1.73 1
 6 1 -14 200.22 6.3 1
 6 1 -13 42.65 1.68 1
 6 1 -12 193.55 6.1 1
 6 1 -11 69.91 2.3 1
 6 1 -10 5.5 0.8 1
 6 1 -9 88.16 3.06 1
 6 1 -8 107.74 3.47 1
 6 1 -7 59.06 1.95 1
 6 1 -6 250.84 7.55 1
 6 1 -5 108.65 3.34 1
 6 1 -4 240.77 6.84 1
 6 1 -3 157.77 4.5 1
 6 1 -2 95.05 2.86 1
 6 1 -1 11.5 0.65 1
 6 1 0 16.55 0.89 1
 6 1 1 11.3 0.9 1
 6 1 2 94.02 3.77 1
 6 1 3 155.53 5.06 1
 6 1 4 243.21 8.33 1
 6 1 5 109.48 3.31 1
 6 1 6 249.61 7.42 1
 6 1 7 62.98 2.06 1
 6 1 8 107.81 3.36 1
 6 1 9 94.54 3.36 1
 6 1 10 6.59 0.78 1
 6 1 11 69.88 2.3 1
 6 1 12 194 6.32 1
 6 1 13 43.28 1.79 1
 6 1 14 191.22 6.23 1
 6 1 15 42.51 1.8 1
 6 1 16 37.31 1.87 1
 6 1 17 110.27 3.78 1
 6 1 18 38.7 1.72 1
 6 1 19 41.74 1.85 1
 6 1 20 103.75 4.22 1
 6 1 21 22.44 2.5 1
 6 1 22 29.24 1.91 1
 6 1 23 34.9 1.86 1
 6 1 24 18.56 1.5 1
 6 1 25 7.95 1.44 1
 6 1 26 30.51 1.82 1
 6 1 27 5.32 1.43 1
 6 1 28 4.04 1.59 1
 6 2 -28 9.68 1.65 1
 6 2 -27 8.95 1.54 1
 6 2 -26 7.54 1.83 1
 6 2 -25 43.59 2.23 1
 6 2 -24 34.53 2.11 1
 6 2 -23 13.72 1.38 1
 6 2 -22 106.17 3.61 1
 6 2 -21 50.85 2.21 1
 6 2 -20 16.64 1.5 1
 6 2 -19 24.24 1.49 1
 6 2 -18 232.32 7.31 1
 6 2 -17 105.7 3.51 1
 6 2 -16 71.22 3.07 1
 6 2 -15 348.47 10.59 1
 6 2 -14 45.13 1.83 1
 6 2 -13 305.7 9.34 1
 6 2 -12 92.23 2.97 1
 6 2 -11 735.28 21.52 1
 6 2 -10 105.51 3.42 1
 6 2 -9 40.87 1.6 1
 6 2 -8 1.51 0.73 1
 6 2 -7 659.15 20.04 1
 6 2 -6 4.15 0.61 1
 6 2 -5 867.55 25.48 1
 6 2 -4 232.06 6.78 1
 6 2 -3 30.06 1.1 1
 6 2 -2 44.2 1.49 1
 6 2 -1 884.36 26.42 1
 6 2 0 1028.49 30.51 1
 6 2 1 861.08 26.69 1
 6 2 2 45.46 1.82 1
 6 2 3 29.85 1.36 1
 6 2 4 232.07 7.92 1
 6 2 5 857.36 33.65 1
 6 2 6 3.83 0.85 1
 6 2 7 651.38 19.17 1
 6 2 8 1.08 0.77 1
 6 2 9 40.53 1.78 1
 6 2 10 102.78 3.21 1
 6 2 11 743.9 23.35 1
 6 2 12 92.09 3.05 1
 6 2 13 285.75 8.82 1
 6 2 14 46.62 1.96 1
 6 2 15 341.1 10.7 1
 6 2 16 70.49 2.57 1
 6 2 17 103.5 3.59 1
 6 2 18 229.46 8.36 1
 6 2 19 24.17 1.95 1
 6 2 20 17.28 1.58 1
 6 2 21 50.96 2.11 1
 6 2 22 100.5 4.3 1
 6 2 23 13.05 1.57 1
 6 2 24 33.19 1.99 1
 6 2 25 43.93 2.09 1
 6 2 26 3.77 1.38 1
 6 2 27 9.98 1.53 1
 6 2 28 10.82 1.89 1
 6 3 -28 1.79 1.63 1
 6 3 -27 17.56 1.78 1
 6 3 -26 12.22 2.06 1
 6 3 -25 3.45 1.43 1
 6 3 -24 28.65 1.59 1
 6 3 -23 61.63 3.17 1
 6 3 -22 14.23 1.64 1
 6 3 -21 11.03 1.3 1
 6 3 -20 198.07 6.6 1
 6 3 -19 62.04 2.53 1
 6 3 -18 27.65 1.54 1
 6 3 -17 142.56 4.58 1
 6 3 -16 217.03 6.75 1
 6 3 -15 29.43 1.36 1
 6 3 -14 165.54 5.18 1
 6 3 -13 372.72 12.89 1
 6 3 -12 21.25 1.11 1
 6 3 -11 500.54 15.23 1
 6 3 -10 205.5 6.43 1
 6 3 -9 289.49 8.4 1
 6 3 -8 163.25 4.81 1
 6 3 -7 368.98 11.63 1
 6 3 -6 168.09 5.04 1
 6 3 -5 276.96 8.49 1
 6 3 -4 105.68 3.16 1
 6 3 -3 52.37 1.84 1
 6 3 -2 504.63 15.1 1
 6 3 -1 16.72 0.81 1
 6 3 0 12.17 0.71 1
 6 3 1 15.59 0.82 1
 6 3 2 504.02 16.33 1
 6 3 3 54.06 2.09 1
 6 3 4 104.62 3.8 1
 6 3 5 278.38 9.46 1
 6 3 6 161.57 5.6 1
 6 3 7 369.53 12.25 1
 6 3 8 158.8 5.73 1
 6 3 9 305.24 9.5 1
 6 3 10 199.71 6.88 1
 6 3 11 476.84 15.51 1
 6 3 12 19.07 1.11 1
 6 3 13 378.54 12.97 1
 6 3 14 168.16 5.46 1
 6 3 15 28.28 1.66 1
 6 3 16 216.35 7.16 1
 6 3 17 147.17 4.76 1
 6 3 18 27.12 1.84 1
 6 3 19 66.44 2.59 1
 6 3 20 199.92 6.44 1
 6 3 21 8.49 1.33 1
 6 3 22 17 1.84 1
 6 3 23 63.73 2.36 1
 6 3 24 29.44 1.85 1
 6 3 25 3.79 1.7 1
 6 3 26 16.15 1.72 1
 6 3 27 14.65 1.62 1
 6 3 28 -1.67 5.49 1
 6 4 -27 3.58 1.57 1
 6 4 -26 1.02 1.65 1
 6 4 -25 6.91 1.38 1
 6 4 -24 11.28 1.9 1
 6 4 -23 21.45 1.61 1
 6 4 -22 26.65 1.57 1
 6 4 -21 54.66 2.26 1
 6 4 -20 2.46 1.28 1
 6 4 -19 113.4 3.84 1
 6 4 -18 117.81 3.87 1
 6 4 -17 101.33 3.4 1
 6 4 -16 117.1 3.79 1
 6 4 -15 273.84 8.56 1
 6 4 -14 60.76 2.52 1
 6 4 -13 210.62 8.44 1
 6 4 -12 394.78 12.4 1
 6 4 -11 177.38 5.8 1
 6 4 -10 145.84 6.2 1
 6 4 -9 1010.29 33.04 1
 6 4 -8 305.74 9.28 1
 6 4 -7 307.52 9.59 1
 6 4 -6 426.9 12.51 1
 6 4 -5 1071.29 30.79 1
 6 4 -4 58.13 2.12 1
 6 4 -3 290.91 8.89 1
 6 4 -2 335.94 10.02 1
 6 4 -1 669.99 20.1 1
 6 4 0 0.89 0.68 1
 6 4 1 666.74 19.85 1
 6 4 2 329.02 9.78 1
 6 4 3 286.64 8.68 1
 6 4 4 61.57 2.19 1
 6 4 5 1081.13 33.79 1
 6 4 6 433.04 20.12 1
 6 4 7 311.86 9.81 1
 6 4 8 305.76 9.81 1
 6 4 9 1059.72 32.63 1
 6 4 10 141.18 4.66 1
 6 4 11 181.32 5.99 1
 6 4 12 390.4 12.54 1
 6 4 13 218.71 6.45 1
 6 4 14 57.92 2.89 1
 6 4 15 265.9 8.8 1
 6 4 16 118.69 4.17 1
 6 4 17 102.33 3.5 1
 6 4 18 116.49 4.17 1
 6 4 19 115.29 4.06 1
 6 4 20 0.46 1.35 1
 6 4 21 58.97 3.18 1
 6 4 22 25.28 1.55 1
 6 4 23 19.72 1.63 1
 6 4 24 10.25 1.53 1
 6 4 25 9.1 1.84 1
 6 4 26 -1.15 5.71 1
 6 4 27 5.08 1.57 1
 6 5 -27 2.39 1.73 1
 6 5 -26 2.87 2.35 1
 6 5 -25 4.1 1.57 1
 6 5 -24 -0.43 5.53 1
 6 5 -23 1.46 1.62 1
 6 5 -22 5.4 1.39 1
 6 5 -21 19.02 1.82 1
 6 5 -20 4.71 1.29 1
 6 5 -19 6.51 1.27 1
 6 5 -18 45.19 1.91 1
 6 5 -17 146.34 5.04 1
 6 5 -16 31.4 1.73 1
 6 5 -15 38.47 1.86 1
 6 5 -14 283.29 9.55 1
 6 5 -13 279.24 9.46 1
 6 5 -12 7.7 1.12 1
 6 5 -11 449.69 14 1
 6 5 -10 367.17 12.46 1
 6 5 -9 223.2 7.22 1
 6 5 -8 202.98 6.7 1
 6 5 -7 741.43 23.04 1
 6 5 -6 109.06 3.76 1
 6 5 -5 674.32 20.27 1
 6 5 -4 479.88 14.38 1
 6 5 -3 392.15 12.11 1
 6 5 -2 243.14 7.53 1
 6 5 -1 341.07 10.35 1
 6 5 0 515.02 15.36 1
 6 5 1 343.2 10.17 1
 6 5 2 241.29 7.36 1
 6 5 3 394.96 11.78 1
 6 5 4 491.55 15.09 1
 6 5 5 688.32 20.68 1
 6 5 6 107.75 3.55 1
 6 5 7 723.29 22.76 1
 6 5 8 211.44 6.71 1
 6 5 9 218.24 7.02 1
 6 5 10 370.66 11.74 1
 6 5 11 431.68 13.57 1
 6 5 12 9.31 1.48 1
 6 5 13 288.75 9.49 1
 6 5 14 274.31 9.18 1
 6 5 15 42.1 2.6 1
 6 5 16 30.53 1.79 1
 6 5 17 152.14 5 1
 6 5 18 44.63 2.06 1
 6 5 19 7.39 1.38 1
 6 5 20 5.82 1.3 1
 6 5 21 17.18 1.86 1
 6 5 22 6.7 1.42 1
 6 5 23 0.64 1.53 1
 6 5 24 0.25 1.42 1
 6 5 25 6.5 1.42 1
 6 5 26 4.7 1.56 1
 6 5 27 1.6 1.67 1
 6 6 -26 2.91 1.82 1
 6 6 -25 5.26 2.22 1
 6 6 -24 2.59 2.22 1
 6 6 -23 12.65 1.49 1
 6 6 -22 6.13 1.48 1
 6 6 -21 14.38 1.56 1
 6 6 -20 1.92 1.39 1
 6 6 -19 10.54 1.37 1
 6 6 -18 13.59 1.54 1
 6 6 -17 53.12 2.16 1
 6 6 -16 50.7 2.69 1
 6 6 -15 100.83 3.57 1
 6 6 -14 54.67 2.88 1
 6 6 -13 120.13 4.38 1
 6 6 -12 187.78 7.04 1
 6 6 -11 108.75 4.05 1
 6 6 -10 173.01 6.72 1
 6 6 -9 363.36 11.34 1
 6 6 -8 141.87 4.97 1
 6 6 -7 43.64 1.91 1
 6 6 -6 433.39 13.58 1
 6 6 -5 386.15 12.03 1
 6 6 -4 229.32 6.95 1
 6 6 -3 436.12 13.18 1
 6 6 -2 307.69 9.4 1
 6 6 -1 576.08 17.11 1
 6 6 0 460.39 14 1
 6 6 1 576.78 17.7 1
 6 6 2 307.52 9.71 1
 6 6 3 450.76 13.7 1
 6 6 4 233.51 7.14 1
 6 6 5 371.27 11.24 1
 6 6 6 427.07 12.06 1
 6 6 7 45.02 2.02 1
 6 6 8 147.81 5.01 1
 6 6 9 356.06 13.74 1
 6 6 10 171.26 5.68 1
 6 6 11 105.46 3.74 1
 6 6 12 189.71 6.32 1
 6 6 13 129.89 5.11 1
 6 6 14 55.02 2.41 1
 6 6 15 103.59 3.63 1
 6 6 16 46.2 2.21 1
 6 6 17 57.37 2.23 1
 6 6 18 16.13 1.36 1
 6 6 19 11.47 1.58 1
 6 6 20 0.08 1.39 1
 6 6 21 15.12 1.83 1
 6 6 22 11.96 1.84 1
 6 6 23 12.92 1.58 1
 6 6 24 1.52 1.81 1
 6 6 25 4.97 1.78 1
 6 6 26 4.91 1.66 1
 6 7 -25 3.2 2.02 1
 6 7 -24 2.92 2.06 1
 6 7 -23 3.74 1.56 1
 6 7 -22 8.25 1.48 1
 6 7 -21 21.64 1.55 1
 6 7 -20 17.51 1.46 1
 6 7 -19 28.67 1.75 1
 6 7 -18 19.06 1.55 1
 6 7 -17 19.49 1.57 1
 6 7 -16 27 1.78 1
 6 7 -15 72.82 2.79 1
 6 7 -14 14 1.48 1
 6 7 -13 35.1 1.8 1
 6 7 -12 47.49 2.17 1
 6 7 -11 90.1 3.29 1
 6 7 -10 59.36 2.53 1
 6 7 -9 23.13 1.45 1
 6 7 -8 222.85 7.58 1
 6 7 -7 106.57 3.43 1
 6 7 -6 105.51 4.02 1
 6 7 -5 63.75 2.57 1
 6 7 -4 278.28 8.85 1
 6 7 -3 310.45 9.65 1
 6 7 -2 353.8 13.29 1
 6 7 -1 394.04 12.13 1
 6 7 0 24.6 1.75 1
 6 7 1 386.46 12.03 1
 6 7 2 355.91 11.16 1
 6 7 3 312.59 9.5 1
 6 7 4 270.62 8.36 1
 6 7 5 61.95 2.22 1
 6 7 6 114.44 3.75 1
 6 7 7 104.66 5.62 1
 6 7 8 224.1 7.44 1
 6 7 9 25.68 1.53 1
 6 7 10 57.54 2.3 1
 6 7 11 89.97 3.41 1
 6 7 12 48.81 2.17 1
 6 7 13 35.17 1.74 1
 6 7 14 11.99 1.41 1
 6 7 15 76.73 2.83 1
 6 7 16 27.26 1.7 1
 6 7 17 21.26 1.67 1
 6 7 18 17.54 1.98 1
 6 7 19 30.28 2.21 1
 6 7 20 16.36 1.36 1
 6 7 21 21.98 1.58 1
 6 7 22 13.93 1.7 1
 6 7 23 1.19 1.64 1
 6 7 24 6.04 1.86 1
 6 7 25 3.58 1.69 1
 6 8 -23 6.31 1.94 1
 6 8 -22 9.18 1.56 1
 6 8 -21 3.42 1.5 1
 6 8 -20 18.11 1.59 1
 6 8 -19 9.15 1.75 1
 6 8 -18 18.81 1.46 1
 6 8 -17 39.24 1.87 1
 6 8 -16 25.48 1.63 1
 6 8 -15 23.04 1.6 1
 6 8 -14 20.45 2.11 1
 6 8 -13 27.51 2.35 1
 6 8 -12 0.7 1.77 1
 6 8 -11 67.41 2.62 1
 6 8 -10 11.16 1.28 1
 6 8 -9 36.46 1.8 1
 6 8 -8 15.55 1.8 1
 6 8 -7 69.21 4.53 1
 6 8 -6 72.22 2.78 1
 6 8 -5 53.47 2.25 1
 6 8 -4 111.07 3.91 1
 6 8 -3 47.14 1.99 1
 6 8 -2 31.89 1.62 1
 6 8 -1 8.32 1.06 1
 6 8 0 269.2 8.51 1
 6 8 1 5.79 1.3 1
 6 8 2 31.96 1.62 1
 6 8 3 47.33 1.91 1
 6 8 4 105.29 3.48 1
 6 8 5 49.09 1.95 1
 6 8 6 76.18 2.75 1
 6 8 7 74.13 2.52 1
 6 8 8 15.9 2.21 1
 6 8 9 38.32 2.08 1
 6 8 10 10.69 2.6 1
 6 8 11 71.4 2.73 1
 6 8 12 4.64 1.34 1
 6 8 13 29.19 1.63 1
 6 8 14 22.7 1.76 1
 6 8 15 25.26 1.74 1
 6 8 16 26.91 2.36 1
 6 8 17 42.46 2.05 1
 6 8 18 18.42 1.71 1
 6 8 19 10.64 1.52 1
 6 8 20 18.42 1.58 1
 6 8 21 2.29 1.9 1
 6 8 22 12.59 1.71 1
 6 8 23 10.34 1.81 1
 6 9 -22 0.19 1.76 1
 6 9 -21 7.64 1.96 1
 6 9 -20 4.57 1.5 1
 6 9 -19 7.75 1.57 1
 6 9 -18 8.32 1.49 1
 6 9 -17 0.31 1.44 1
 6 9 -16 14.8 1.4 1
 6 9 -15 50.33 2.07 1
 6 9 -14 4.28 1.31 1
 6 9 -13 15.51 1.43 1
 6 9 -12 31 1.73 1
 6 9 -11 34.26 2.12 1
 6 9 -10 15.42 1.53 1
 6 9 -9 47.97 2.26 1
 6 9 -8 7.39 1.7 1
 6 9 -7 51.19 2.19 1
 6 9 -6 8.81 1.27 1
 6 9 -5 26.8 1.57 1
 6 9 -4 14.35 1.34 1
 6 9 -3 84.6 2.98 1
 6 9 -2 52.26 2.06 1
 6 9 -1 6.17 1.12 1
 6 9 0 1 1.09 1
 6 9 1 7.67 1.11 1
 6 9 2 53.42 2.05 1
 6 9 3 87.3 3.1 1
 6 9 4 16.77 1.27 1
 6 9 5 26.67 1.47 1
 6 9 6 9.56 1.21 1
 6 9 7 49.87 2.6 1
 6 9 8 5.91 1.81 1
 6 9 9 44.6 3.53 1
 6 9 10 15.41 1.56 1
 6 9 11 36.02 1.87 1
 6 9 12 31.62 2.33 1
 6 9 13 16.42 2.15 1
 6 9 14 4.41 1.89 1
 6 9 15 52.03 2.63 1
 6 9 16 14.58 2.16 1
 6 9 17 0.06 1.8 1
 6 9 18 4.99 1.5 1
 6 9 19 9.93 1.53 1
 6 9 20 5.91 2.01 1
 6 9 21 7.14 2.51 1
 6 9 22 2.4 2.2 1
 6 10 -20 1.2 1.94 1
 6 10 -19 1.67 1.71 1
 6 10 -18 1.55 1.5 1
 6 10 -17 6.21 1.46 1
 6 10 -16 2.37 1.5 1
 6 10 -15 4.86 1.46 1
 6 10 -14 11.93 1.37 1
 6 10 -13 13.31 1.46 1
 6 10 -12 3.52 1.28 1
 6 10 -11 23.41 1.57 1
 6 10 -10 15.35 1.47 1
 6 10 -9 7.13 1.43 1
 6 10 -8 22.43 1.54 1
 6 10 -7 11.81 1.36 1
 6 10 -6 4.87 1.37 1
 6 10 -5 3.7 1.45 1
 6 10 -4 3.25 1.33 1
 6 10 -3 3.1 1.21 1
 6 10 -2 11.27 2.01 1
 6 10 -1 10.56 1.33 1
 6 10 0 3.31 1.33 1
 6 10 1 10.73 1.69 1
 6 10 2 12.34 1.61 1
 6 10 3 3.84 1.3 1
 6 10 4 6.9 1.25 1
 6 10 5 3.06 1.24 1
 6 10 6 4.51 1.36 1
 6 10 7 13.71 1.41 1
 6 10 8 21.88 1.46 1
 6 10 9 5.3 1.27 1
 6 10 10 16.1 1.54 1
 6 10 11 23.58 1.8 1
 6 10 12 5.13 1.31 1
 6 10 13 11.26 1.67 1
 6 10 14 12.58 1.61 1
 6 10 15 6.82 1.75 1
 6 10 16 6.29 1.51 1
 6 10 17 5.87 1.49 1
 6 10 18 2.96 1.91 1
 6 10 19 3.53 1.71 1
 6 10 20 2.96 1.92 1
 6 11 -18 3.32 1.74 1
 6 11 -17 4.7 2.77 1
 6 11 -16 1.74 1.62 1
 6 11 -15 5.87 1.51 1
 6 11 -14 3.55 1.61 1
 6 11 -13 7.53 1.51 1
 6 11 -12 4.57 1.39 1
 6 11 -11 1.47 1.34 1
 6 11 -10 5.01 1.42 1
 6 11 -9 28.51 1.96 1
 6 11 -8 2.45 1.3 1
 6 11 -7 14.43 1.74 1
 6 11 -6 11.79 1.4 1
 6 11 -5 10.26 1.33 1
 6 11 -4 12.01 1.36 1
 6 11 -3 30.52 1.64 1
 6 11 -2 1.05 1.59 1
 6 11 -1 11.03 1.56 1
 6 11 0 14.25 2 1
 6 11 1 11.28 1.66 1
 6 11 2 3.13 1.33 1
 6 11 3 34.62 2.12 1
 6 11 4 9.56 1.3 1
 6 11 5 11.61 1.29 1
 6 11 6 12.57 1.33 1
 6 11 7 11.92 1.41 1
 6 11 8 1.7 1.69 1
 6 11 9 30.08 2.11 1
 6 11 10 6.23 1.82 1
 6 11 11 2.45 1.38 1
 6 11 12 3.96 1.44 1
 6 11 13 4.45 1.53 1
 6 11 14 5.59 1.91 1
 6 11 15 4.89 1.55 1
 6 11 16 1.85 1.53 1
 6 11 17 5.55 1.75 1
 6 11 18 3.96 1.77 1
 6 12 -15 4.23 2.4 1
 6 12 -14 -2.12 6.86 1
 6 12 -13 4.36 1.75 1
 6 12 -12 1.43 2.21 1
 6 12 -11 3.33 1.79 1
 6 12 -10 -0.01 7.18 1
 6 12 -9 0.75 1.57 1
 6 12 -8 2.89 1.5 1
 6 12 -7 4.36 1.37 1
 6 12 -6 0.55 2.09 1
 6 12 -5 6.61 1.79 1
 6 12 -4 8.17 1.4 1
 6 12 -3 1.59 1.65 1
 6 12 -2 6.29 1.54 1
 6 12 -1 5.7 1.65 1
 6 12 0 5.43 1.36 1
 6 12 1 5.83 1.35 1
 6 12 2 4.91 1.4 1
 6 12 3 4.89 1.35 1
 6 12 4 5.94 1.86 1
 6 12 5 5.19 1.33 1
 6 12 6 0.93 1.4 1
 6 12 7 7.07 1.95 1
 6 12 8 4.29 1.47 1
 6 12 9 2.26 1.49 1
 6 12 10 0.14 1.66 1
 6 12 11 4.98 1.58 1
 6 12 12 4.36 1.49 1
 6 12 13 0.92 1.52 1
 6 12 14 4.46 1.57 1
 6 12 15 6.67 2.88 1
 6 13 -11 5.11 1.91 1
 6 13 -10 2.81 1.66 1
 6 13 -9 6.49 1.74 1
 6 13 -8 4.29 1.67 1
 6 13 -7 4.59 1.61 1
 6 13 -6 4.46 1.51 1
 6 13 -5 2.87 1.52 1
 6 13 -4 1.44 1.49 1
 6 13 -3 3.77 1.47 1
 6 13 -2 3.02 1.41 1
 6 13 -1 2.75 1.41 1
 6 13 0 2.99 1.47 1
 6 13 1 4.7 1.42 1
 6 13 2 1.14 1.45 1
 6 13 3 5.28 1.6 1
 6 13 4 1.78 1.84 1
 6 13 5 4.37 1.69 1
 6 13 6 1.84 1.6 1
 6 13 7 1.83 1.99 1
 6 13 8 2.64 1.94 1
 6 13 9 8.99 2.24 1
 6 13 10 4.26 2.18 1
 6 13 11 7.27 2.34 1
 6 14 -3 4.67 1.97 1
 6 14 -2 0.38 2.07 1
 6 14 -1 -0.66 5.83 1
 6 14 0 0.67 1.94 1
 6 14 1 0.17 1.63 1
 6 14 2 2.78 1.65 1
 6 14 3 3.04 1.7 1
 7 0 1 900.1 30.74 1
 7 0 2 5804.96 184.4 1
 7 0 3 6.12 0.88 1
 7 0 4 221.77 6.85 1
 7 0 5 360.21 11.12 1
 7 0 6 423.92 12.62 1
 7 0 7 423.81 12.98 1
 7 0 8 61.2 2.09 1
 7 0 9 27.95 1.48 1
 7 0 10 26.28 1.37 1
 7 0 11 255.25 7.95 1
 7 0 12 91.68 3.18 1
 7 0 13 101.14 4.32 1
 7 0 14 1.49 0.99 1
 7 0 15 10.27 1.06 1
 7 0 16 427.64 12.86 1
 7 0 17 10.42 1.21 1
 7 0 18 2.01 1.17 1
 7 0 19 11.25 1.44 1
 7 0 20 317.08 9.75 1
 7 0 21 0.52 1.3 1
 7 0 22 10.64 1.65 1
 7 0 23 16.33 1.43 1
 7 0 24 42.27 1.96 1
 7 0 25 3.1 1.54 1
 7 0 26 13.14 1.62 1
 7 0 27 5.95 1.75 1
 7 1 -27 7.19 2.05 1
 7 1 -26 5.86 1.42 1
 7 1 -25 10.76 1.42 1
 7 1 -24 21.84 1.51 1
 7 1 -23 7.37 1.34 1
 7 1 -22 60.25 2.49 1
 7 1 -21 32.01 1.65 1
 7 1 -20 31.51 1.87 1
 7 1 -19 40.08 1.93 1
 7 1 -18 172.14 5.42 1
 7 1 -17 78.26 2.69 1
 7 1 -16 79.72 4.14 1
 7 1 -15 175.56 5.89 1
 7 1 -14 151.24 4.68 1
 7 1 -13 284.38 9.04 1
 7 1 -12 26.41 1.44 1
 7 1 -11 131.28 4.33 1
 7 1 -10 136.62 4.26 1
 7 1 -9 686.51 20.27 1
 7 1 -8 418.6 12.6 1
 7 1 -7 100.29 3.22 1
 7 1 -6 646.22 19.38 1
 7 1 -5 379.34 10.89 1
 7 1 -4 1390.56 38.63 1
 7 1 -3 936.38 26.23 1
 7 1 -2 742.91 20.69 1
 7 1 -1 348.23 10.7 1
 7 1 0 2867.08 93.98 1
 7 1 1 339.13 13.82 1
 7 1 2 726.69 33.24 1
 7 1 3 937.3 39.04 1
 7 1 4 1321.02 54.08 1
 7 1 5 375.61 12.7 1
 7 1 6 643.71 18.68 1
 7 1 7 102.18 3.23 1
 7 1 8 414.77 12.62 1
 7 1 9 657.49 21.11 1
 7 1 10 136.99 4.23 1
 7 1 11 136.64 4.41 1
 7 1 12 25.21 1.23 1
 7 1 13 279.26 8.39 1
 7 1 14 150.06 5.02 1
 7 1 15 177.03 5.89 1
 7 1 16 84.76 3.96 1
 7 1 17 77.26 2.78 1
 7 1 18 177.84 6.36 1
 7 1 19 35.62 2.1 1
 7 1 20 32.14 1.68 1
 7 1 21 28.89 1.58 1
 7 1 22 59.35 3.03 1
 7 1 23 4.21 1.53 1
 7 1 24 23.93 1.77 1
 7 1 25 11.14 1.93 1
 7 1 26 6.88 1.51 1
 7 1 27 2.56 1.57 1
 7 2 -27 2.78 1.72 1
 7 2 -26 9.03 1.54 1
 7 2 -25 11.19 1.46 1
 7 2 -24 2.12 1.4 1
 7 2 -23 9.2 1.48 1
 7 2 -22 20.25 1.49 1
 7 2 -21 47.72 2.03 1
 7 2 -20 3.57 1.24 1
 7 2 -19 35.63 2.33 1
 7 2 -18 24.26 1.44 1
 7 2 -17 192.49 6.07 1
 7 2 -16 4.79 1.1 1
 7 2 -15 187.78 5.87 1
 7 2 -14 150.48 4.9 1
 7 2 -13 258.83 7.85 1
 7 2 -12 6.49 0.92 1
 7 2 -11 754.26 22.41 1
 7 2 -10 43.68 1.68 1
 7 2 -9 14.53 0.98 1
 7 2 -8 467.06 14.37 1
 7 2 -7 958.39 28.21 1
 7 2 -6 274.09 8.71 1
 7 2 -5 617.98 17.56 1
 7 2 -4 1167.81 33.43 1
 7 2 -3 212.15 5.68 1
 7 2 -2 114.7 3.37 1
 7 2 -1 501.34 14.47 1
 7 2 0 17.92 0.83 1
 7 2 1 487.96 17.7 1
 7 2 2 108.46 3.62 1
 7 2 3 208.66 6.74 1
 7 2 4 1152.67 37.63 1
 7 2 5 619.02 19.93 1
 7 2 6 271.23 13.89 1
 7 2 7 933.41 30.9 1
 7 2 8 456.12 19.6 1
 7 2 9 14.86 1.15 1
 7 2 10 43.87 1.63 1
 7 2 11 759.73 23.56 1
 7 2 12 6.59 0.98 1
 7 2 13 250.59 7.62 1
 7 2 14 146.43 4.83 1
 7 2 15 178.51 5.74 1
 7 2 16 5.81 1.17 1
 7 2 17 197.16 7.54 1
 7 2 18 21.26 1.71 1
 7 2 19 37.34 1.96 1
 7 2 20 1.86 1.28 1
 7 2 21 45.13 2.5 1
 7 2 22 20.79 1.66 1
 7 2 23 10.85 1.43 1
 7 2 24 2.24 1.48 1
 7 2 25 11.33 1.48 1
 7 2 26 11.84 1.51 1
 7 2 27 0.87 1.64 1
 7 3 -27 9.64 1.68 1
 7 3 -26 6.47 1.59 1
 7 3 -25 6.45 1.5 1
 7 3 -24 5.44 1.52 1
 7 3 -23 15.85 1.43 1
 7 3 -22 2.93 1.25 1
 7 3 -21 13 1.38 1
 7 3 -20 13.63 1.28 1
 7 3 -19 74.94 2.72 1
 7 3 -18 20.13 1.59 1
 7 3 -17 10.45 1.27 1
 7 3 -16 2.71 1.07 1
 7 3 -15 193.43 6.3 1
 7 3 -14 209.57 6.6 1
 7 3 -13 196.62 5.94 1
 7 3 -12 13.69 1 1
 7 3 -11 72.42 2.54 1
 7 3 -10 264.49 8.42 1
 7 3 -9 740.7 21.59 1
 7 3 -8 115.53 3.53 1
 7 3 -7 231.27 6.8 1
 7 3 -6 92.43 2.87 1
 7 3 -5 323.87 10.16 1
 7 3 -4 113.79 3.49 1
 7 3 -3 363.73 10.6 1
 7 3 -2 1244.89 35.99 1
 7 3 -1 15.99 0.82 1
 7 3 0 38.16 1.34 1
 7 3 1 16.93 0.91 1
 7 3 2 1263.78 43.73 1
 7 3 3 371.93 12.55 1
 7 3 4 115.67 4 1
 7 3 5 322.26 12.83 1
 7 3 6 93.05 3.92 1
 7 3 7 231.85 7.78 1
 7 3 8 121.63 4.84 1
 7 3 9 714.1 32.99 1
 7 3 10 254.84 8.03 1
 7 3 11 69.2 3.2 1
 7 3 12 12.28 1.13 1
 7 3 13 192.78 6.09 1
 7 3 14 210.98 7.05 1
 7 3 15 187.19 6 1
 7 3 16 4.34 1.17 1
 7 3 17 8.87 1.54 1
 7 3 18 17.74 1.49 1
 7 3 19 69.53 2.59 1
 7 3 20 13.19 1.43 1
 7 3 21 13.7 1.47 1
 7 3 22 2.16 1.37 1
 7 3 23 16.82 1.4 1
 7 3 24 4.55 1.44 1
 7 3 25 6.37 1.46 1
 7 3 26 5.64 1.44 1
 7 3 27 12.62 1.66 1
 7 4 -26 3.09 1.5 1
 7 4 -25 1.79 1.44 1
 7 4 -24 6.12 1.57 1
 7 4 -23 11.55 1.54 1
 7 4 -22 3.04 1.35 1
 7 4 -21 4.89 1.66 1
 7 4 -20 3.3 1.33 1
 7 4 -19 17.42 1.34 1
 7 4 -18 16.09 1.65 1
 7 4 -17 55.41 2.17 1
 7 4 -16 13.27 1.44 1
 7 4 -15 12.66 1.3 1
 7 4 -14 78.05 4.12 1
 7 4 -13 90.13 3.4 1
 7 4 -12 217.42 7.45 1
 7 4 -11 206.89 6.54 1
 7 4 -10 215.86 6.85 1
 7 4 -9 38.75 1.6 1
 7 4 -8 312.51 9.68 1
 7 4 -7 177.58 6.02 1
 7 4 -6 134.71 4.21 1
 7 4 -5 192 6.16 1
 7 4 -4 469.72 13.69 1
 7 4 -3 69.5 3 1
 7 4 -2 75.76 2.45 1
 7 4 -1 123.98 3.83 1
 7 4 0 1276.13 40.12 1
 7 4 1 123.95 4.65 1
 7 4 2 73.23 2.42 1
 7 4 3 66.79 2.14 1
 7 4 4 456.81 17.46 1
 7 4 5 189.64 7.12 1
 7 4 6 131.43 4.76 1
 7 4 7 175.07 6.03 1
 7 4 8 308.31 10.15 1
 7 4 9 38.84 2.11 1
 7 4 10 208.44 6.68 1
 7 4 11 205.94 6.61 1
 7 4 12 212.45 6.81 1
 7 4 13 93.71 3.27 1
 7 4 14 85.84 4.54 1
 7 4 15 10.67 1.16 1
 7 4 16 13.18 1.33 1
 7 4 17 50.63 2.09 1
 7 4 18 15.4 1.67 1
 7 4 19 16.74 1.49 1
 7 4 20 2.76 1.29 1
 7 4 21 5.03 1.3 1
 7 4 22 3.27 1.33 1
 7 4 23 11.29 1.63 1
 7 4 24 4.45 1.44 1
 7 4 25 4.47 1.56 1
 7 4 26 6.1 1.64 1
 7 5 -25 7.81 2.02 1
 7 5 -24 4.93 1.6 1
 7 5 -23 3.09 1.6 1
 7 5 -22 2.39 1.47 1
 7 5 -21 5.68 1.41 1
 7 5 -20 5.78 1.47 1
 7 5 -19 4.89 1.58 1
 7 5 -18 3.97 1.37 1
 7 5 -17 8.1 1.46 1
 7 5 -16 5.92 1.91 1
 7 5 -15 65.29 2.93 1
 7 5 -14 12.56 1.45 1
 7 5 -13 52.57 2.14 1
 7 5 -12 66.19 2.84 1
 7 5 -11 27.35 1.58 1
 7 5 -10 12.73 1.29 1
 7 5 -9 91.63 3.32 1
 7 5 -8 539.65 16.91 1
 7 5 -7 64.31 2.31 1
 7 5 -6 69.23 3.42 1
 7 5 -5 49.07 1.86 1
 7 5 -4 588.47 17.32 1
 7 5 -3 94.81 3 1
 7 5 -2 125.65 3.93 1
 7 5 -1 200.97 6.19 1
 7 5 0 24.74 1.11 1
 7 5 1 200.07 6.2 1
 7 5 2 124.54 3.9 1
 7 5 3 94.23 3.27 1
 7 5 4 584.69 17.85 1
 7 5 5 48.7 1.84 1
 7 5 6 70.09 3.21 1
 7 5 7 66.33 2.53 1
 7 5 8 517.4 16.28 1
 7 5 9 89.8 3.13 1
 7 5 10 12.11 1.2 1
 7 5 11 27.21 1.48 1
 7 5 12 67.72 2.51 1
 7 5 13 52.26 2.09 1
 7 5 14 11.42 1.66 1
 7 5 15 58.92 2.97 1
 7 5 16 4.05 1.36 1
 7 5 17 8.91 1.38 1
 7 5 18 6.01 1.86 1
 7 5 19 2.76 1.24 1
 7 5 20 8.25 1.39 1
 7 5 21 6.93 1.34 1
 7 5 22 2.58 1.28 1
 7 5 23 2.6 1.52 1
 7 5 24 6.93 1.7 1
 7 5 25 7.15 1.69 1
 7 6 -25 0.18 2.36 1
 7 6 -24 1.46 1.63 1
 7 6 -23 2.4 1.52 1
 7 6 -22 5.02 1.71 1
 7 6 -21 5.09 1.37 1
 7 6 -20 8.4 1.61 1
 7 6 -19 -0.58 6.53 1
 7 6 -18 19.44 1.96 1
 7 6 -17 11.21 1.4 1
 7 6 -16 -0.33 5.23 1
 7 6 -15 8.57 1.58 1
 7 6 -14 41.92 2.08 1
 7 6 -13 53.18 2.23 1
 7 6 -12 35.8 1.8 1
 7 6 -11 65.23 2.47 1
 7 6 -10 198.09 6.88 1
 7 6 -9 40.91 1.84 1
 7 6 -8 65.44 2.55 1
 7 6 -7 17.79 1.32 1
 7 6 -6 521.67 15.66 1
 7 6 -5 120.03 4.71 1
 7 6 -4 37.29 1.7 1
 7 6 -3 49.67 1.99 1
 7 6 -2 234.8 7.12 1
 7 6 -1 52.44 2.21 1
 7 6 0 57.22 2.45 1
 7 6 1 56.62 2.11 1
 7 6 2 242.37 7.36 1
 7 6 3 50.63 1.83 1
 7 6 4 40.24 1.54 1
 7 6 5 124.82 4.27 1
 7 6 6 521.17 16.04 1
 7 6 7 16.4 1.38 1
 7 6 8 63.03 2.73 1
 7 6 9 41.83 1.83 1
 7 6 10 196.76 6.62 1
 7 6 11 65.23 3.15 1
 7 6 12 39.1 1.82 1
 7 6 13 57.01 2.5 1
 7 6 14 42.87 2.4 1
 7 6 15 9.79 1.36 1
 7 6 16 1.45 1.49 1
 7 6 17 12.17 1.43 1
 7 6 18 19.79 1.52 1
 7 6 19 3.78 1.47 1
 7 6 20 7.45 1.57 1
 7 6 21 4.55 1.35 1
 7 6 22 3.72 1.54 1
 7 6 23 1.22 1.65 1
 7 6 24 -0.41 5.72 1
 7 6 25 -0.51 6.02 1
 7 7 -23 5.06 1.64 1
 7 7 -22 3.14 1.45 1
 7 7 -21 -1.54 5.63 1
 7 7 -20 1.55 1.64 1
 7 7 -19 5.42 1.38 1
 7 7 -18 17.04 2.67 1
 7 7 -17 2.37 1.62 1
 7 7 -16 5.52 1.33 1
 7 7 -15 13.34 1.42 1
 7 7 -14 52.96 2.29 1
 7 7 -13 36.8 2.1 1
 7 7 -12 47.06 2.91 1
 7 7 -11 23.24 2.28 1
 7 7 -10 62.06 3.01 1
 7 7 -9 114.19 4.99 1
 7 7 -8 68.29 2.51 1
 7 7 -7 78.14 2.84 1
 7 7 -6 9.82 1.18 1
 7 7 -5 37.11 1.75 1
 7 7 -4 40.56 1.73 1
 7 7 -3 62.57 2.36 1
 7 7 -2 213.02 6.62 1
 7 7 -1 10.35 1.15 1
 7 7 0 100.77 3.42 1
 7 7 1 8.82 1.02 1
 7 7 2 213.26 6.74 1
 7 7 3 61.77 2.29 1
 7 7 4 40.89 1.87 1
 7 7 5 37.04 1.52 1
 7 7 6 8.96 1.27 1
 7 7 7 80.3 3.37 1
 7 7 8 73.44 3.26 1
 7 7 9 115.84 4.21 1
 7 7 10 70.72 2.64 1
 7 7 11 29.73 2.17 1
 7 7 12 46.78 2.32 1
 7 7 13 34.39 1.78 1
 7 7 14 50.54 2.95 1
 7 7 15 11.93 1.78 1
 7 7 16 8.66 1.75 1
 7 7 17 2.75 1.41 1
 7 7 18 17.15 1.79 1
 7 7 19 4.76 1.42 1
 7 7 20 3.41 1.48 1
 7 7 21 2.64 1.77 1
 7 7 22 2.3 1.61 1
 7 7 23 4.64 1.55 1
 7 8 -22 5.63 1.59 1
 7 8 -21 3.47 1.72 1
 7 8 -20 3.06 1.73 1
 7 8 -19 3.84 1.49 1
 7 8 -18 7.27 1.4 1
 7 8 -17 7.3 1.37 1
 7 8 -16 26.54 1.63 1
 7 8 -15 10.43 1.39 1
 7 8 -14 20.67 1.88 1
 7 8 -13 6.02 1.71 1
 7 8 -12 95.99 3.78 1
 7 8 -11 52.54 2.76 1
 7 8 -10 4.45 1.78 1
 7 8 -9 14.14 1.49 1
 7 8 -8 113.45 4.96 1
 7 8 -7 90.82 3.32 1
 7 8 -6 1.19 1.1 1
 7 8 -5 33.21 2.02 1
 7 8 -4 147.11 5.21 1
 7 8 -3 29.8 1.55 1
 7 8 -2 10.7 1.22 1
 7 8 -1 21.66 1.33 1
 7 8 0 219.24 7.13 1
 7 8 1 20.63 1.34 1
 7 8 2 11.35 1.43 1
 7 8 3 30.72 1.72 1
 7 8 4 147.67 4.68 1
 7 8 5 33.81 1.64 1
 7 8 6 0.12 1.04 1
 7 8 7 88.31 3.32 1
 7 8 8 114.89 4.01 1
 7 8 9 16.43 1.53 1
 7 8 10 5.57 1.34 1
 7 8 11 51.45 2.26 1
 7 8 12 102.75 4.3 1
 7 8 13 3.19 1.3 1
 7 8 14 22.19 1.91 1
 7 8 15 11.1 1.81 1
 7 8 16 25.21 1.82 1
 7 8 17 7.73 1.49 1
 7 8 18 5.73 2.08 1
 7 8 19 0.83 1.49 1
 7 8 20 3.04 1.55 1
 7 8 21 7.11 1.56 1
 7 8 22 5.4 1.61 1
 7 9 -20 10.85 1.83 1
 7 9 -19 2.96 1.51 1
 7 9 -18 7.29 1.5 1
 7 9 -17 4.47 1.37 1
 7 9 -16 13.84 1.59 1
 7 9 -15 2.62 1.3 1
 7 9 -14 11.36 1.48 1
 7 9 -13 5.64 1.34 1
 7 9 -12 30.1 1.83 1
 7 9 -11 2.59 1.51 1
 7 9 -10 46.2 2.22 1
 7 9 -9 9.01 1.41 1
 7 9 -8 45.9 2.28 1
 7 9 -7 4.07 1.23 1
 7 9 -6 124.21 4.19 1
 7 9 -5 11.96 1.27 1
 7 9 -4 63 2.37 1
 7 9 -3 10.92 1.31 1
 7 9 -2 45.39 2.03 1
 7 9 -1 4.14 1.25 1
 7 9 0 62.54 2.53 1
 7 9 1 4.57 1.15 1
 7 9 2 45.43 1.87 1
 7 9 3 10.25 1.23 1
 7 9 4 60.62 2.4 1
 7 9 5 11.99 1.32 1
 7 9 6 125.69 4.08 1
 7 9 7 2.34 1.36 1
 7 9 8 46.24 2.51 1
 7 9 9 9.87 1.43 1
 7 9 10 48.9 2.3 1
 7 9 11 1.24 1.35 1
 7 9 12 29.27 2.59 1
 7 9 13 7.14 1.46 1
 7 9 14 8.9 2.32 1
 7 9 15 3.95 1.54 1
 7 9 16 11.25 1.55 1
 7 9 17 5.9 1.53 1
 7 9 18 8.84 2.33 1
 7 9 19 1.57 1.82 1
 7 9 20 11.4 1.69 1
 7 10 -18 6.16 1.64 1
 7 10 -17 5.73 1.64 1
 7 10 -16 14.97 1.81 1
 7 10 -15 -0.09 6.92 1
 7 10 -14 2.33 1.39 1
 7 10 -13 1.66 1.47 1
 7 10 -12 4.98 1.41 1
 7 10 -11 7.99 1.43 1
 7 10 -10 20.21 1.77 1
 7 10 -9 0.18 1.4 1
 7 10 -8 5.75 1.41 1
 7 10 -7 10.93 1.39 1
 7 10 -6 85.3 3.28 1
 7 10 -5 8.4 1.35 1
 7 10 -4 14.17 1.41 1
 7 10 -3 5.97 1.22 1
 7 10 -2 146.96 5.06 1
 7 10 -1 7.98 1.24 1
 7 10 0 2.36 1.21 1
 7 10 1 6.86 1.22 1
 7 10 2 147.52 4.63 1
 7 10 3 5.38 1.19 1
 7 10 4 13.97 1.28 1
 7 10 5 5.71 1.69 1
 7 10 6 89.22 3.18 1
 7 10 7 6.99 2.06 1
 7 10 8 5.28 1.4 1
 7 10 9 2 1.2 1
 7 10 10 23.59 1.67 1
 7 10 11 5.35 1.62 1
 7 10 12 2.36 1.61 1
 7 10 13 1.15 1.49 1
 7 10 14 4.73 1.51 1
 7 10 15 0.99 1.53 1
 7 10 16 14.44 1.88 1
 7 10 17 4.95 1.48 1
 7 10 18 8.46 1.53 1
 7 11 -16 3.43 2.02 1
 7 11 -15 6.39 1.64 1
 7 11 -14 7.87 1.85 1
 7 11 -13 8.53 1.56 1
 7 11 -12 2.47 1.51 1
 7 11 -11 4.47 1.46 1
 7 11 -10 3.55 1.4 1
 7 11 -9 21.82 1.75 1
 7 11 -8 4.58 1.4 1
 7 11 -7 2.79 1.52 1
 7 11 -6 5.21 1.46 1
 7 11 -5 17.67 1.46 1
 7 11 -4 23.7 1.96 1
 7 11 -3 11.57 1.33 1
 7 11 -2 6.87 1.29 1
 7 11 -1 11.76 1.36 1
 7 11 0 58.3 2.22 1
 7 11 1 11.34 1.33 1
 7 11 2 4.31 1.31 1
 7 11 3 10.09 1.38 1
 7 11 4 27.76 1.64 1
 7 11 5 18.88 1.51 1
 7 11 6 3.25 1.28 1
 7 11 7 2.19 1.41 1
 7 11 8 6.43 1.34 1
 7 11 9 24.84 2.53 1
 7 11 10 -0.19 5.62 1
 7 11 11 5.06 1.66 1
 7 11 12 1.84 1.53 1
 7 11 13 13.99 1.56 1
 7 11 14 9.85 1.53 1
 7 11 15 5.04 1.52 1
 7 11 16 1.26 2.01 1
 7 12 -13 5.11 1.7 1
 7 12 -12 5.7 2.75 1
 7 12 -11 11.86 2.17 1
 7 12 -10 0.06 1.97 1
 7 12 -9 3.01 1.6 1
 7 12 -8 3.98 1.58 1
 7 12 -7 13.68 1.66 1
 7 12 -6 2.35 1.57 1
 7 12 -5 5.23 1.8 1
 7 12 -4 6.43 1.84 1
 7 12 -3 8.63 1.56 1
 7 12 -2 1.84 1.48 1
 7 12 -1 5.57 1.49 1
 7 12 0 13.9 1.5 1
 7 12 1 9.84 1.47 1
 7 12 2 2.42 1.48 1
 7 12 3 7.97 2.21 1
 7 12 4 9.56 1.48 1
 7 12 5 6.04 1.57 1
 7 12 6 4.15 2.02 1
 7 12 7 13.09 1.56 1
 7 12 8 4.08 1.61 1
 7 12 9 2.47 1.68 1
 7 12 10 3.19 1.48 1
 7 12 11 14.7 1.79 1
 7 12 12 8.23 1.63 1
 7 12 13 8.35 2.28 1
 7 13 -8 4.02 2.18 1
 7 13 -7 2.36 1.69 1
 7 13 -6 -0.76 5.64 1
 7 13 -5 4.52 1.64 1
 7 13 -4 6.72 1.77 1
 7 13 -3 3.36 1.76 1
 7 13 -2 3.49 1.55 1
 7 13 -1 3.35 1.45 1
 7 13 0 9.16 1.62 1
 7 13 1 2.39 1.82 1
 7 13 2 2.17 1.53 1
 7 13 3 3.36 2.09 1
 7 13 4 5.02 1.78 1
 7 13 5 2.42 2.51 1
 7 13 6 2.41 1.8 1
 7 13 7 3.4 2.23 1
 7 13 8 3.19 1.83 1
 8 0 0 298.92 13.83 1
 8 0 1 34.11 1.87 1
 8 0 2 120.99 4.21 1
 8 0 3 199.5 6.37 1
 8 0 4 17.85 1.2 1
 8 0 5 0.48 0.83 1
 8 0 6 110.78 3.37 1
 8 0 7 572.48 17.07 1
 8 0 8 648.67 19.5 1
 8 0 9 103.55 3.24 1
 8 0 10 34.98 1.41 1
 8 0 11 304.78 10.44 1
 8 0 12 222.35 7.99 1
 8 0 13 201.58 6.35 1
 8 0 14 49.02 1.83 1
 8 0 15 3.81 1.05 1
 8 0 16 0.54 1.23 1
 8 0 17 33.06 1.79 1
 8 0 18 5.52 1.21 1
 8 0 19 24.96 1.71 1
 8 0 20 6.98 1.28 1
 8 0 21 3.51 1.64 1
 8 0 22 8 1.84 1
 8 0 23 2.23 1.57 1
 8 0 24 5.22 2 1
 8 0 25 0.9 2.04 1
 8 0 26 8.66 1.5 1
 8 1 -26 3.96 1.58 1
 8 1 -25 9.32 1.44 1
 8 1 -24 6.13 1.47 1
 8 1 -23 3.33 1.35 1
 8 1 -22 1.25 1.71 1
 8 1 -21 13.93 1.35 1
 8 1 -20 1.86 1.27 1
 8 1 -19 5.02 1.26 1
 8 1 -18 9.84 1.24 1
 8 1 -17 55.06 2.5 1
 8 1 -16 14.37 1.23 1
 8 1 -15 186.74 5.67 1
 8 1 -14 10.39 1.07 1
 8 1 -13 98.67 3.32 1
 8 1 -12 47.3 1.79 1
 8 1 -11 521.77 16.96 1
 8 1 -10 231.38 6.92 1
 8 1 -9 409.82 12.13 1
 8 1 -8 37.56 1.59 1
 8 1 -7 641.57 19.12 1
 8 1 -6 115.91 3.46 1
 8 1 -5 813.46 22.74 1
 8 1 -4 373.93 10.63 1
 8 1 -3 293.61 8.29 1
 8 1 -2 220.46 7.11 1
 8 1 -1 271.28 8.57 1
 8 1 0 90.36 3.1 1
 8 1 1 264.01 8.54 1
 8 1 2 225.95 8.61 1
 8 1 3 295.99 11.83 1
 8 1 4 367.46 15.85 1
 8 1 5 787.45 25.86 1
 8 1 6 114.79 3.95 1
 8 1 7 655.56 19.26 1
 8 1 8 38.71 1.65 1
 8 1 9 415.93 12.61 1
 8 1 10 231.35 7.1 1
 8 1 11 518.35 15.56 1
 8 1 12 43.91 2.17 1
 8 1 13 98.27 3.46 1
 8 1 14 9.15 1.41 1
 8 1 15 185.11 7.34 1
 8 1 16 13.57 1.91 1
 8 1 17 52.22 2.63 1
 8 1 18 8.22 1.21 1
 8 1 19 8.18 1.32 1
 8 1 20 3.43 1.29 1
 8 1 21 15.64 1.36 1
 8 1 22 4.43 1.35 1
 8 1 23 2.82 1.33 1
 8 1 24 8.25 1.51 1
 8 1 25 9.18 1.69 1
 8 1 26 3.6 1.65 1
 8 2 -26 6.19 1.97 1
 8 2 -25 2.19 1.89 1
 8 2 -24 11.8 1.46 1
 8 2 -23 8.14 1.37 1
 8 2 -22 7.4 1.31 1
 8 2 -21 4.93 1.34 1
 8 2 -20 26.71 1.85 1
 8 2 -19 19.7 1.38 1
 8 2 -18 3.43 1.16 1
 8 2 -17 73.16 2.55 1
 8 2 -16 14.38 1.27 1
 8 2 -15 22.29 1.55 1
 8 2 -14 16.44 1.49 1
 8 2 -13 185.82 6.04 1
 8 2 -12 1.86 0.92 1
 8 2 -11 53.82 1.9 1
 8 2 -10 24.62 1.26 1
 8 2 -9 89.93 2.88 1
 8 2 -8 8.09 0.86 1
 8 2 -7 321.26 9.55 1
 8 2 -6 486.91 14.43 1
 8 2 -5 490.56 14.51 1
 8 2 -4 201.23 6.1 1
 8 2 -3 242.2 6.98 1
 8 2 -2 293.48 8.48 1
 8 2 -1 510.59 14.34 1
 8 2 0 707.77 22 1
 8 2 1 528.08 18.5 1
 8 2 2 297.03 10.5 1
 8 2 3 247.97 8.85 1
 8 2 4 191.24 7.42 1
 8 2 5 483.8 16.07 1
 8 2 6 480.99 15.47 1
 8 2 7 323.49 10.81 1
 8 2 8 8.93 1.12 1
 8 2 9 90.85 3.24 1
 8 2 10 21.55 1.14 1
 8 2 11 52.7 2.04 1
 8 2 12 0.64 1.03 1
 8 2 13 188.38 6.72 1
 8 2 14 15.73 1.73 1
 8 2 15 23.61 1.7 1
 8 2 16 11.94 1.53 1
 8 2 17 71.09 2.8 1
 8 2 18 4.06 1.25 1
 8 2 19 18.3 1.44 1
 8 2 20 28.1 1.6 1
 8 2 21 4.42 1.51 1
 8 2 22 5.56 1.32 1
 8 2 23 8.24 1.43 1
 8 2 24 12.24 1.59 1
 8 2 25 2.14 1.66 1
 8 2 26 7.02 1.57 1
 8 3 -25 3.4 1.61 1
 8 3 -24 12.44 1.69 1
 8 3 -23 10.41 1.61 1
 8 3 -22 30.17 1.67 1
 8 3 -21 3.32 1.4 1
 8 3 -20 17.29 1.4 1
 8 3 -19 22.51 1.62 1
 8 3 -18 38.65 2.17 1
 8 3 -17 24.23 1.46 1
 8 3 -16 46.23 2.36 1
 8 3 -15 93.03 3.12 1
 8 3 -14 17.84 1.37 1
 8 3 -13 12.79 1.04 1
 8 3 -12 63.51 2.56 1
 8 3 -11 477.81 14.07 1
 8 3 -10 29.04 1.46 1
 8 3 -9 94.83 3.01 1
 8 3 -8 219.62 6.67 1
 8 3 -7 166 5.36 1
 8 3 -6 207.09 6.52 1
 8 3 -5 214.62 6.42 1
 8 3 -4 376.91 10.93 1
 8 3 -3 330 9.68 1
 8 3 -2 705.13 21.97 1
 8 3 -1 705.15 21.64 1
 8 3 0 62.32 2.06 1
 8 3 1 739.68 25.07 1
 8 3 2 721.58 24.29 1
 8 3 3 332.4 11.12 1
 8 3 4 379.15 12.76 1
 8 3 5 208.21 8.29 1
 8 3 6 204.91 6.99 1
 8 3 7 167.13 5.79 1
 8 3 8 215.93 7.17 1
 8 3 9 96.94 3.5 1
 8 3 10 28.08 1.73 1
 8 3 11 443.44 17.01 1
 8 3 12 64.99 2.84 1
 8 3 13 12.62 1.25 1
 8 3 14 19.97 2.04 1
 8 3 15 93.22 3.18 1
 8 3 16 45.71 1.97 1
 8 3 17 22.4 1.52 1
 8 3 18 35.72 2.04 1
 8 3 19 23.64 6.31 1
 8 3 20 20.54 1.7 1
 8 3 21 2.78 1.44 1
 8 3 22 26.86 1.86 1
 8 3 23 8.96 1.8 1
 8 3 24 16.53 1.87 1
 8 3 25 3.18 1.86 1
 8 4 -25 2.55 1.58 1
 8 4 -24 13.63 1.58 1
 8 4 -23 11.02 1.66 1
 8 4 -22 11.63 1.6 1
 8 4 -21 7.81 1.37 1
 8 4 -20 56.74 2.57 1
 8 4 -19 17.63 1.39 1
 8 4 -18 37.53 2.17 1
 8 4 -17 3.7 1.14 1
 8 4 -16 43.7 2 1
 8 4 -15 10.87 1.72 1
 8 4 -14 92.75 3.34 1
 8 4 -13 227.71 7.93 1
 8 4 -12 6.63 1.39 1
 8 4 -11 30.08 1.53 1
 8 4 -10 70.87 2.6 1
 8 4 -9 543.91 20.03 1
 8 4 -8 25.43 1.47 1
 8 4 -7 190.76 5.61 1
 8 4 -6 91.12 2.8 1
 8 4 -5 60.01 2.01 1
 8 4 -4 215.42 6.41 1
 8 4 -3 60.25 2.06 1
 8 4 -2 135.49 4.18 1
 8 4 -1 89.35 2.86 1
 8 4 0 408.95 12.59 1
 8 4 1 89.91 2.89 1
 8 4 2 137.07 4.36 1
 8 4 3 59.74 2.54 1
 8 4 4 214.5 7.43 1
 8 4 5 62.21 2.4 1
 8 4 6 89.94 3.27 1
 8 4 7 187.02 6.56 1
 8 4 8 24.33 1.47 1
 8 4 9 570.73 18.74 1
 8 4 10 69.64 3.44 1
 8 4 11 31.53 1.7 1
 8 4 12 7.71 1.1 1
 8 4 13 228.26 7.26 1
 8 4 14 94.38 3.52 1
 8 4 15 12.82 1.33 1
 8 4 16 40.7 3.2 1
 8 4 17 3.97 1.21 1
 8 4 18 33.72 1.93 1
 8 4 19 13.29 1.48 1
 8 4 20 54.85 3.69 1
 8 4 21 9.53 1.38 1
 8 4 22 9.47 1.35 1
 8 4 23 10.28 1.51 1
 8 4 24 12.65 2.15 1
 8 4 25 3.56 1.89 1
 8 5 -24 13.21 1.65 1
 8 5 -23 17.17 1.68 1
 8 5 -22 33.07 1.93 1
 8 5 -21 27.39 1.94 1
 8 5 -20 2.43 1.47 1
 8 5 -19 32.39 1.81 1
 8 5 -18 62.57 2.4 1
 8 5 -17 119.98 3.94 1
 8 5 -16 26.51 1.72 1
 8 5 -15 31.73 1.84 1
 8 5 -14 22.14 1.65 1
 8 5 -13 80.84 3.36 1
 8 5 -12 29.94 1.65 1
 8 5 -11 81.41 3.97 1
 8 5 -10 10.73 1.4 1
 8 5 -9 116.83 4.01 1
 8 5 -8 9.93 1.39 1
 8 5 -7 70.99 2.83 1
 8 5 -6 7.22 0.96 1
 8 5 -5 712.51 22.13 1
 8 5 -4 74.53 2.57 1
 8 5 -3 22.95 1.78 1
 8 5 -2 7.75 0.89 1
 8 5 -1 235.08 7.2 1
 8 5 0 182.32 5.7 1
 8 5 1 231.68 6.94 1
 8 5 2 11.09 1.02 1
 8 5 3 22.58 1.21 1
 8 5 4 79.04 3.69 1
 8 5 5 705.35 23.69 1
 8 5 6 4.77 1.19 1
 8 5 7 77.7 3.03 1
 8 5 8 11.03 1.38 1
 8 5 9 116.81 4.5 1
 8 5 10 12.57 1.42 1
 8 5 11 84.12 3.22 1
 8 5 12 26.81 1.49 1
 8 5 13 78.26 2.96 1
 8 5 14 22.68 1.53 1
 8 5 15 28.38 1.64 1
 8 5 16 27.01 1.64 1
 8 5 17 119.84 4.55 1
 8 5 18 62.92 2.84 1
 8 5 19 33.54 1.78 1
 8 5 20 1.07 1.44 1
 8 5 21 27.06 1.69 1
 8 5 22 36.04 2.53 1
 8 5 23 22.42 2.31 1
 8 5 24 13.62 1.8 1
 8 6 -23 2.62 1.58 1
 8 6 -22 22.18 1.63 1
 8 6 -21 18.24 1.93 1
 8 6 -20 28.59 1.82 1
 8 6 -19 19.4 1.56 1
 8 6 -18 37.16 1.82 1
 8 6 -17 29.42 1.71 1
 8 6 -16 27.1 1.77 1
 8 6 -15 100.53 3.67 1
 8 6 -14 53.41 2.44 1
 8 6 -13 35.37 2.56 1
 8 6 -12 4.7 1.33 1
 8 6 -11 56.74 2.42 1
 8 6 -10 25.31 1.65 1
 8 6 -9 17.5 1.33 1
 8 6 -8 13.62 1.32 1
 8 6 -7 190.24 6.32 1
 8 6 -6 27.51 2.1 1
 8 6 -5 24.21 1.26 1
 8 6 -4 72.05 3.75 1
 8 6 -3 228.21 7.17 1
 8 6 -2 46.61 1.93 1
 8 6 -1 1.79 0.97 1
 8 6 0 135.98 4.46 1
 8 6 1 2.55 0.9 1
 8 6 2 47.24 1.81 1
 8 6 3 226.76 6.99 1
 8 6 4 71.58 2.59 1
 8 6 5 24.25 1.59 1
 8 6 6 27.4 1.4 1
 8 6 7 184.84 5.86 1
 8 6 8 11.21 1.23 1
 8 6 9 15.96 1.34 1
 8 6 10 26.79 1.51 1
 8 6 11 53.08 2.1 1
 8 6 12 4.61 1.26 1
 8 6 13 30.15 1.71 1
 8 6 14 55.05 2.52 1
 8 6 15 100.06 3.76 1
 8 6 16 29.27 2.11 1
 8 6 17 32.24 2 1
 8 6 18 39.2 2.08 1
 8 6 19 18.62 1.64 1
 8 6 20 31.2 1.77 1
 8 6 21 18.15 1.64 1
 8 6 22 21.59 2.05 1
 8 6 23 3 1.94 1
 8 7 -22 8.25 1.95 1
 8 7 -21 3.66 1.41 1
 8 7 -20 22.88 1.61 1
 8 7 -19 4.01 1.54 1
 8 7 -18 17.91 1.72 1
 8 7 -17 20.95 1.7 1
 8 7 -16 46.64 2.09 1
 8 7 -15 15.78 1.6 1
 8 7 -14 4.27 1.31 1
 8 7 -13 78.09 2.85 1
 8 7 -12 48.46 2.22 1
 8 7 -11 52.34 2.35 1
 8 7 -10 2.52 1.78 1
 8 7 -9 88.17 3.7 1
 8 7 -8 23.98 2.09 1
 8 7 -7 8.17 1.54 1
 8 7 -6 17.67 1.84 1
 8 7 -5 18.06 1.26 1
 8 7 -4 24.84 1.36 1
 8 7 -3 98.98 3.25 1
 8 7 -2 164.36 5.15 1
 8 7 -1 116.28 3.71 1
 8 7 0 4.93 0.99 1
 8 7 1 117.66 3.75 1
 8 7 2 158.55 4.95 1
 8 7 3 100.39 3.18 1
 8 7 4 26.36 1.39 1
 8 7 5 17.53 1.18 1
 8 7 6 21.32 1.49 1
 8 7 7 9.79 1.21 1
 8 7 8 23.49 1.5 1
 8 7 9 87.53 4.04 1
 8 7 10 6.06 1.32 1
 8 7 11 54.5 2.35 1
 8 7 12 48.68 2.04 1
 8 7 13 78.21 3.12 1
 8 7 14 8.66 1.49 1
 8 7 15 14.48 1.75 1
 8 7 16 46.38 2.36 1
 8 7 17 20.44 2.22 1
 8 7 18 19.7 1.66 1
 8 7 19 7.36 1.5 1
 8 7 20 21.02 1.66 1
 8 7 21 5.04 1.65 1
 8 7 22 11.24 1.76 1
 8 8 -20 5.8 1.58 1
 8 8 -19 6.58 1.51 1
 8 8 -18 2.92 1.55 1
 8 8 -17 17.15 1.52 1
 8 8 -16 10.01 1.41 1
 8 8 -15 32.24 1.8 1
 8 8 -14 18.52 1.56 1
 8 8 -13 5.31 1.42 1
 8 8 -12 7.03 1.79 1
 8 8 -11 55.32 2.61 1
 8 8 -10 7.02 1.3 1
 8 8 -9 12.57 1.32 1
 8 8 -8 9.74 2.05 1
 8 8 -7 32.76 1.96 1
 8 8 -6 25.18 2.3 1
 8 8 -5 40.14 2.04 1
 8 8 -4 17.77 1.31 1
 8 8 -3 88.4 3.06 1
 8 8 -2 30.6 1.65 1
 8 8 -1 157.53 5.11 1
 8 8 0 60.58 2.31 1
 8 8 1 160.28 5.01 1
 8 8 2 30.68 1.5 1
 8 8 3 89.82 3.11 1
 8 8 4 14.81 1.38 1
 8 8 5 42.08 2.08 1
 8 8 6 22.32 1.53 1
 8 8 7 34.21 1.74 1
 8 8 8 14.53 1.44 1
 8 8 9 13.47 1.45 1
 8 8 10 7.78 1.57 1
 8 8 11 56.83 2.95 1
 8 8 12 11.28 1.49 1
 8 8 13 4.46 1.46 1
 8 8 14 19.42 1.65 1
 8 8 15 33.51 1.99 1
 8 8 16 10.07 1.76 1
 8 8 17 16.43 1.67 1
 8 8 18 5.03 1.44 1
 8 8 19 9.13 1.76 1
 8 8 20 4.7 1.75 1
 8 9 -19 9.3 1.94 1
 8 9 -18 3.31 1.56 1
 8 9 -17 3.92 1.45 1
 8 9 -16 9.48 1.79 1
 8 9 -15 19.3 1.83 1
 8 9 -14 3.23 1.43 1
 8 9 -13 6.48 1.38 1
 8 9 -12 14.13 1.61 1
 8 9 -11 21.34 1.56 1
 8 9 -10 21.81 1.71 1
 8 9 -9 19.95 1.58 1
 8 9 -8 2.61 1.32 1
 8 9 -7 43.45 2.12 1
 8 9 -6 33.88 2.07 1
 8 9 -5 14.36 1.36 1
 8 9 -4 25 1.67 1
 8 9 -3 44.29 1.9 1
 8 9 -2 4.8 1.28 1
 8 9 -1 7.06 1.45 1
 8 9 0 16.69 1.49 1
 8 9 1 6.23 1.24 1
 8 9 2 8.33 1.21 1
 8 9 3 45.11 1.84 1
 8 9 4 26.2 1.48 1
 8 9 5 15.19 1.31 1
 8 9 6 33.19 1.61 1
 8 9 7 44.57 2.36 1
 8 9 8 3.36 1.43 1
 8 9 9 23.43 1.64 1
 8 9 10 26.27 1.76 1
 8 9 11 21.54 1.63 1
 8 9 12 14.91 1.71 1
 8 9 13 6.7 1.47 1
 8 9 14 2.51 2.23 1
 8 9 15 22.63 1.88 1
 8 9 16 11.01 1.49 1
 8 9 17 -0.32 5.81 1
 8 9 18 5.08 1.74 1
 8 9 19 9.84 1.81 1
 8 10 -17 7.65 4.82 1
 8 10 -16 2.68 1.61 1
 8 10 -15 2.39 1.52 1
 8 10 -14 9.15 1.53 1
 8 10 -13 8.9 1.63 1
 8 10 -12 8.69 2.01 1
 8 10 -11 3.71 2.17 1
 8 10 -10 6.91 1.46 1
 8 10 -9 15.48 1.63 1
 8 10 -8 28.3 2.09 1
 8 10 -7 13.19 1.43 1
 8 10 -6 8.22 1.61 1
 8 10 -5 13.89 1.33 1
 8 10 -4 20.15 1.4 1
 8 10 -3 22.18 1.57 1
 8 10 -2 21.99 1.75 1
 8 10 -1 4.27 1.32 1
 8 10 0 3.73 1.29 1
 8 10 1 5.75 1.26 1
 8 10 2 22.7 1.44 1
 8 10 3 19.78 1.43 1
 8 10 4 19.96 1.99 1
 8 10 5 15.3 1.86 1
 8 10 6 7.61 1.45 1
 8 10 7 17.46 1.46 1
 8 10 8 35.5 2.09 1
 8 10 9 16.69 2.07 1
 8 10 10 5.19 1.48 1
 8 10 11 7.98 1.59 1
 8 10 12 9.53 1.58 1
 8 10 13 10.32 1.54 1
 8 10 14 10.31 1.57 1
 8 10 15 5.34 1.84 1
 8 10 16 3.53 2.14 1
 8 10 17 8.82 3.4 1
 8 11 -14 4.03 1.67 1
 8 11 -13 7.57 1.7 1
 8 11 -12 4.63 1.97 1
 8 11 -11 7.01 1.85 1
 8 11 -10 12.04 2.16 1
 8 11 -9 8.44 1.47 1
 8 11 -8 -0.2 5.48 1
 8 11 -7 4.91 1.54 1
 8 11 -6 11.79 1.58 1
 8 11 -5 3.23 1.41 1
 8 11 -4 13.96 1.48 1
 8 11 -3 3.25 1.34 1
 8 11 -2 4.67 1.48 1
 8 11 -1 0.27 1.29 1
 8 11 0 25.72 1.59 1
 8 11 1 0.53 1.32 1
 8 11 2 5.07 1.45 1
 8 11 3 -0.99 5.36 1
 8 11 4 12.3 1.52 1
 8 11 5 2.93 1.36 1
 8 11 6 12.15 1.51 1
 8 11 7 2.53 1.49 1
 8 11 8 1.44 1.51 1
 8 11 9 9.01 1.59 1
 8 11 10 7.24 1.65 1
 8 11 11 3.66 1.59 1
 8 11 12 5.29 1.65 1
 8 11 13 4.68 1.8 1
 8 11 14 3.61 1.68 1
 8 12 -10 4.53 2 1
 8 12 -9 7.48 2.6 1
 8 12 -8 7.12 1.97 1
 8 12 -7 4.64 1.7 1
 8 12 -6 5.96 1.74 1
 8 12 -5 2.85 1.96 1
 8 12 -4 6.12 2.29 1
 8 12 -3 5.19 1.85 1
 8 12 -2 13.54 1.62 1
 8 12 -1 2.89 1.77 1
 8 12 0 10.54 1.74 1
 8 12 1 -0.62 5.42 1
 8 12 2 15.62 1.6 1
 8 12 3 7.58 1.77 1
 8 12 4 9.37 1.55 1
 8 12 5 5.38 1.48 1
 8 12 6 7.23 1.62 1
 8 12 7 4.71 1.53 1
 8 12 8 6.22 1.74 1
 8 12 9 6.38 2.13 1
 8 12 10 3.37 1.65 1
 9 0 1 43.47 1.93 1
 9 0 2 371.3 11.4 1
 9 0 3 389.65 13.42 1
 9 0 4 124.82 4.05 1
 9 0 5 21.69 1.38 1
 9 0 6 8.59 0.83 1
 9 0 7 264.81 8.76 1
 9 0 8 462.46 14.09 1
 9 0 9 163.98 4.97 1
 9 0 10 28.64 1.46 1
 9 0 11 8.57 1.04 1
 9 0 12 142.61 5.21 1
 9 0 13 172.32 5.27 1
 9 0 14 22.79 1.36 1
 9 0 15 138.66 5.33 1
 9 0 16 49.91 2.67 1
 9 0 17 49.34 2.05 1
 9 0 18 23.66 1.91 1
 9 0 19 62.05 2.35 1
 9 0 20 122.35 4.06 1
 9 0 21 9.8 1.36 1
 9 0 22 0.49 1.38 1
 9 0 23 12.6 1.8 1
 9 0 24 19.08 1.68 1
 9 0 25 1.71 1.74 1
 9 1 -25 6.88 1.67 1
 9 1 -24 7.52 1.53 1
 9 1 -23 2.5 1.47 1
 9 1 -22 23.57 1.83 1
 9 1 -21 18.1 1.51 1
 9 1 -20 27.66 1.58 1
 9 1 -19 8.13 1.45 1
 9 1 -18 41.77 2.25 1
 9 1 -17 54.81 2.04 1
 9 1 -16 141.09 4.81 1
 9 1 -15 94.99 3.24 1
 9 1 -14 16.03 1.19 1
 9 1 -13 60.32 2.08 1
 9 1 -12 68.02 2.62 1
 9 1 -11 261.22 8.2 1
 9 1 -10 186.94 5.7 1
 9 1 -9 100.92 3.11 1
 9 1 -8 55.57 1.97 1
 9 1 -7 119.55 3.62 1
 9 1 -6 76.37 2.32 1
 9 1 -5 206.02 5.79 1
 9 1 -4 31.89 1.14 1
 9 1 -3 21.58 1.11 1
 9 1 -2 321.98 9.97 1
 9 1 -1 29.71 1.33 1
 9 1 0 4.65 0.93 1
 9 1 1 27.69 1.5 1
 9 1 2 317.57 9.76 1
 9 1 3 20.36 1.3 1
 9 1 4 29.38 1.68 1
 9 1 5 207.76 7.86 1
 9 1 6 73.38 2.71 1
 9 1 7 119.67 4.16 1
 9 1 8 53.47 1.94 1
 9 1 9 103.93 3.44 1
 9 1 10 189.29 5.86 1
 9 1 11 256.44 8.64 1
 9 1 12 67.52 2.85 1
 9 1 13 62.82 2.55 1
 9 1 14 16.26 1.19 1
 9 1 15 96.01 3.16 1
 9 1 16 137.85 4.62 1
 9 1 17 58.92 2.51 1
 9 1 18 41.76 2.5 1
 9 1 19 8.95 1.27 1
 9 1 20 24.72 1.6 1
 9 1 21 18.11 1.56 1
 9 1 22 20.49 1.8 1
 9 1 23 2.53 1.37 1
 9 1 24 5.75 1.78 1
 9 1 25 8.36 2.37 1
 9 2 -24 4.78 1.6 1
 9 2 -23 4.08 1.47 1
 9 2 -22 15.59 1.57 1
 9 2 -21 3.48 1.38 1
 9 2 -20 1.67 1.23 1
 9 2 -19 5.87 1.38 1
 9 2 -18 81.15 3.15 1
 9 2 -17 7.75 1.28 1
 9 2 -16 29.56 1.78 1
 9 2 -15 4.88 1.14 1
 9 2 -14 257.32 7.72 1
 9 2 -13 118.15 3.99 1
 9 2 -12 101.31 3.27 1
 9 2 -11 70.79 2.99 1
 9 2 -10 82.5 2.84 1
 9 2 -9 183.33 5.47 1
 9 2 -8 16.7 1.01 1
 9 2 -7 86.4 2.81 1
 9 2 -6 403.79 11.8 1
 9 2 -5 62.38 2.12 1
 9 2 -4 267.61 8.56 1
 9 2 -3 15.23 1.03 1
 9 2 -2 784.62 21.99 1
 9 2 -1 102.42 3.4 1
 9 2 0 459.96 15.1 1
 9 2 1 104.21 3.42 1
 9 2 2 784.12 26.89 1
 9 2 3 13.81 1.49 1
 9 2 4 278.81 10.4 1
 9 2 5 59.5 2.55 1
 9 2 6 406.02 13.16 1
 9 2 7 87.02 3.01 1
 9 2 8 16.98 1.33 1
 9 2 9 178.16 5.93 1
 9 2 10 86.71 3.11 1
 9 2 11 69.16 2.67 1
 9 2 12 95.64 3.13 1
 9 2 13 118.66 3.82 1
 9 2 14 270.37 8.26 1
 9 2 15 6.06 1.16 1
 9 2 16 27.46 1.93 1
 9 2 17 9.75 1.56 1
 9 2 18 80.59 3.83 1
 9 2 19 5.11 1.27 1
 9 2 20 0.45 1.29 1
 9 2 21 4.09 1.36 1
 9 2 22 13.26 1.43 1
 9 2 23 3.67 1.46 1
 9 2 24 3.34 1.6 1
 9 3 -24 6.04 1.67 1
 9 3 -23 9.49 1.59 1
 9 3 -22 8.5 1.56 1
 9 3 -21 13.21 1.69 1
 9 3 -20 9.71 1.51 1
 9 3 -19 8.57 1.62 1
 9 3 -18 4.87 1.41 1
 9 3 -17 45.09 1.92 1
 9 3 -16 37.73 1.82 1
 9 3 -15 8.12 1.47 1
 9 3 -14 101.07 3.49 1
 9 3 -13 4.06 1.22 1
 9 3 -12 41.25 1.74 1
 9 3 -11 17.95 1.16 1
 9 3 -10 183.66 5.45 1
 9 3 -9 38.88 1.65 1
 9 3 -8 228.92 7.04 1
 9 3 -7 29.24 1.24 1
 9 3 -6 64.36 2.12 1
 9 3 -5 7.43 0.88 1
 9 3 -4 684.34 19.48 1
 9 3 -3 90.92 2.83 1
 9 3 -2 153.91 5.72 1
 9 3 -1 82.88 2.92 1
 9 3 0 566 27.8 1
 9 3 1 75.57 3.63 1
 9 3 2 148 7.87 1
 9 3 3 76.81 3.83 1
 9 3 4 682.14 23.63 1
 9 3 5 7.27 1.09 1
 9 3 6 64.38 2.45 1
 9 3 7 31.18 1.72 1
 9 3 8 229.81 7.85 1
 9 3 9 38.03 1.89 1
 9 3 10 180.61 6.15 1
 9 3 11 17.6 1.42 1
 9 3 12 39.62 2.23 1
 9 3 13 3.89 1.1 1
 9 3 14 99.74 3.31 1
 9 3 15 7.69 1.3 1
 9 3 16 36.41 1.74 1
 9 3 17 43.04 1.83 1
 9 3 18 7.69 1.45 1
 9 3 19 7.91 1.38 1
 9 3 20 7.27 1.75 1
 9 3 21 11.19 2 1
 9 3 22 8.74 2.01 1
 9 3 23 8.39 1.89 1
 9 3 24 8.07 1.83 1
 9 4 -23 4 2.29 1
 9 4 -22 7.9 1.74 1
 9 4 -21 27.21 2.32 1
 9 4 -20 14.48 1.47 1
 9 4 -19 64.14 2.52 1
 9 4 -18 4.78 1.43 1
 9 4 -17 4.41 1.31 1
 9 4 -16 1.28 1.2 1
 9 4 -15 95.48 3.52 1
 9 4 -14 7.48 1.32 1
 9 4 -13 18.54 1.79 1
 9 4 -12 107.09 3.63 1
 9 4 -11 8.38 1.12 1
 9 4 -10 33.32 1.75 1
 9 4 -9 37.74 1.66 1
 9 4 -8 393.4 11.39 1
 9 4 -7 39.26 1.56 1
 9 4 -6 151.65 4.61 1
 9 4 -5 76.42 2.49 1
 9 4 -4 262.75 8.54 1
 9 4 -3 157.96 4.75 1
 9 4 -2 56.9 2.74 1
 9 4 -1 88.66 3.14 1
 9 4 0 169.75 5.25 1
 9 4 1 92.71 2.96 1
 9 4 2 58.44 2.2 1
 9 4 3 156.4 5.35 1
 9 4 4 273.21 9.34 1
 9 4 5 73.39 2.75 1
 9 4 6 150.3 5.18 1
 9 4 7 43.91 2.2 1
 9 4 8 387.5 12.96 1
 9 4 9 39.24 2.12 1
 9 4 10 35.4 1.86 1
 9 4 11 6.73 1.55 1
 9 4 12 107.24 3.92 1
 9 4 13 18.83 1.52 1
 9 4 14 4.91 1.24 1
 9 4 15 87.84 3.52 1
 9 4 16 2.32 1.47 1
 9 4 17 4.69 1.49 1
 9 4 18 5.02 1.52 1
 9 4 19 61.8 4.14 1
 9 4 20 13 1.63 1
 9 4 21 29.68 1.82 1
 9 4 22 6.13 2.43 1
 9 4 23 2.48 1.64 1
 9 5 -22 7.52 1.69 1
 9 5 -21 12.3 2.21 1
 9 5 -20 8.22 1.44 1
 9 5 -19 22.23 1.68 1
 9 5 -18 31.46 1.92 1
 9 5 -17 78.93 3.01 1
 9 5 -16 5.31 1.45 1
 9 5 -15 5.83 1.39 1
 9 5 -14 29.46 1.63 1
 9 5 -13 56.18 2.25 1
 9 5 -12 0.85 1.33 1
 9 5 -11 33.62 1.71 1
 9 5 -10 69.49 2.96 1
 9 5 -9 14.79 1.78 1
 9 5 -8 3.98 0.93 1
 9 5 -7 26.63 1.26 1
 9 5 -6 136.48 4.5 1
 9 5 -5 82.9 2.75 1
 9 5 -4 33.45 1.36 1
 9 5 -3 34.82 1.78 1
 9 5 -2 182.12 6.12 1
 9 5 -1 153.59 4.78 1
 9 5 0 18.94 1.11 1
 9 5 1 146.7 4.51 1
 9 5 2 184.55 5.75 1
 9 5 3 40.01 2.12 1
 9 5 4 33.88 1.99 1
 9 5 5 78.92 3.56 1
 9 5 6 143.51 5.3 1
 9 5 7 26.39 1.93 1
 9 5 8 5.34 1.4 1
 9 5 9 14.12 1.5 1
 9 5 10 64.08 4.39 1
 9 5 11 30.65 2.75 1
 9 5 12 0.5 1.56 1
 9 5 13 52.3 3.16 1
 9 5 14 25.62 1.55 1
 9 5 15 6.51 1.26 1
 9 5 16 4.46 1.37 1
 9 5 17 82.01 3.02 1
 9 5 18 35.62 2.19 1
 9 5 19 22.56 1.66 1
 9 5 20 8.57 2.11 1
 9 5 21 11.31 1.93 1
 9 5 22 3.3 1.81 1
 9 6 -21 22.48 1.7 1
 9 6 -20 6.45 1.57 1
 9 6 -19 21.11 2.5 1
 9 6 -18 6.36 1.49 1
 9 6 -17 3.54 1.39 1
 9 6 -16 35.94 1.83 1
 9 6 -15 53.47 2.6 1
 9 6 -14 56 2.73 1
 9 6 -13 34.19 2.51 1
 9 6 -12 85.2 3.38 1
 9 6 -11 12.21 1.37 1
 9 6 -10 120.84 4.76 1
 9 6 -9 20.51 1.47 1
 9 6 -8 58.71 2.32 1
 9 6 -7 7.16 1.79 1
 9 6 -6 63.65 2.99 1
 9 6 -5 3.31 1.01 1
 9 6 -4 24.09 1.29 1
 9 6 -3 33.92 1.54 1
 9 6 -2 23.24 1.25 1
 9 6 -1 11.83 1.16 1
 9 6 0 119.21 3.71 1
 9 6 1 11.29 1.02 1
 9 6 2 22.24 1.28 1
 9 6 3 37.23 1.6 1
 9 6 4 23.57 1.78 1
 9 6 5 3.16 1.3 1
 9 6 6 61.53 2.47 1
 9 6 7 5.27 1.31 1
 9 6 8 58.13 2.52 1
 9 6 9 18.24 1.51 1
 9 6 10 120.34 4.34 1
 9 6 11 11.25 1.98 1
 9 6 12 83.58 4.37 1
 9 6 13 33.79 3.7 1
 9 6 14 48.77 2.03 1
 9 6 15 54.51 2.26 1
 9 6 16 33.66 2.18 1
 9 6 17 3.66 1.6 1
 9 6 18 5.97 1.46 1
 9 6 19 19.4 1.96 1
 9 6 20 1.5 1.95 1
 9 6 21 19.06 2.38 1
 9 7 -20 5.7 1.93 1
 9 7 -19 2.47 1.53 1
 9 7 -18 6.48 1.5 1
 9 7 -17 19.16 1.62 1
 9 7 -16 5.45 1.43 1
 9 7 -15 9.58 1.47 1
 9 7 -14 37.76 1.81 1
 9 7 -13 18.8 1.49 1
 9 7 -12 88.56 3.21 1
 9 7 -11 31.33 2 1
 9 7 -10 63.81 3.03 1
 9 7 -9 17 1.49 1
 9 7 -8 167.33 5.36 1
 9 7 -7 1.16 1.31 1
 9 7 -6 30.54 1.97 1
 9 7 -5 34.29 1.62 1
 9 7 -4 67.88 3.24 1
 9 7 -3 17.02 1.25 1
 9 7 -2 37.24 1.73 1
 9 7 -1 21.89 1.45 1
 9 7 0 14.6 1.29 1
 9 7 1 20.28 1.69 1
 9 7 2 34.76 1.84 1
 9 7 3 16.93 1.21 1
 9 7 4 69.62 2.45 1
 9 7 5 33.32 1.75 1
 9 7 6 29.91 1.56 1
 9 7 7 0.66 1.22 1
 9 7 8 166.5 4.81 1
 9 7 9 17.45 1.86 1
 9 7 10 68.78 3.1 1
 9 7 11 31.38 1.98 1
 9 7 12 81.74 3.45 1
 9 7 13 15.72 1.61 1
 9 7 14 40.3 1.98 1
 9 7 15 9.77 1.64 1
 9 7 16 2.29 1.45 1
 9 7 17 21.76 2.05 1
 9 7 18 6.18 1.86 1
 9 7 19 2.01 2.1 1
 9 7 20 4.07 1.76 1
 9 8 -19 4.5 1.55 1
 9 8 -18 9.72 1.6 1
 9 8 -17 4.03 1.43 1
 9 8 -16 7.66 1.94 1
 9 8 -15 6.59 1.46 1
 9 8 -14 4.57 1.36 1
 9 8 -13 26.93 1.68 1
 9 8 -12 12.45 1.56 1
 9 8 -11 18.61 1.73 1
 9 8 -10 22.02 1.52 1
 9 8 -9 40.39 2.07 1
 9 8 -8 11.91 1.79 1
 9 8 -7 72.27 3.07 1
 9 8 -6 62.64 3.1 1
 9 8 -5 9.61 1.36 1
 9 8 -4 39.5 1.72 1
 9 8 -3 60.96 2.34 1
 9 8 -2 20.44 1.53 1
 9 8 -1 26.29 1.46 1
 9 8 0 39.03 1.73 1
 9 8 1 22.52 1.56 1
 9 8 2 21.98 1.38 1
 9 8 3 60.09 2.64 1
 9 8 4 38.12 1.75 1
 9 8 5 10.33 1.15 1
 9 8 6 64.62 2.72 1
 9 8 7 72.75 2.7 1
 9 8 8 9.15 1.29 1
 9 8 9 43.75 2.1 1
 9 8 10 23.16 1.72 1
 9 8 11 15.91 1.55 1
 9 8 12 8.44 1.61 1
 9 8 13 27.06 1.83 1
 9 8 14 3.09 1.56 1
 9 8 15 4.56 1.77 1
 9 8 16 7.85 1.86 1
 9 8 17 -1.2 5.82 1
 9 8 18 6.94 1.78 1
 9 8 19 5.51 1.87 1
 9 9 -17 4.14 1.93 1
 9 9 -16 11.59 1.59 1
 9 9 -15 5.14 1.48 1
 9 9 -14 6.51 1.47 1
 9 9 -13 4.42 1.52 1
 9 9 -12 10.29 2.08 1
 9 9 -11 49.56 2.59 1
 9 9 -10 2.27 1.83 1
 9 9 -9 22.62 1.77 1
 9 9 -8 1.07 1.32 1
 9 9 -7 42.68 2.33 1
 9 9 -6 36.62 2 1
 9 9 -5 52.06 2.43 1
 9 9 -4 7.44 1.25 1
 9 9 -3 7.27 1.27 1
 9 9 -2 36.31 1.73 1
 9 9 -1 26.68 1.5 1
 9 9 0 3.59 1.17 1
 9 9 1 25.18 1.42 1
 9 9 2 36.2 1.92 1
 9 9 3 10.4 1.23 1
 9 9 4 6.65 1.96 1
 9 9 5 51.46 2.21 1
 9 9 6 34.75 2.2 1
 9 9 7 41.67 2.13 1
 9 9 8 1.42 1.49 1
 9 9 9 27.72 1.99 1
 9 9 10 2.56 1.5 1
 9 9 11 46.97 2.5 1
 9 9 12 6.56 1.76 1
 9 9 13 5.53 1.88 1
 9 9 14 2.72 1.94 1
 9 9 15 5.51 1.95 1
 9 9 16 12.61 1.75 1
 9 9 17 7.79 1.98 1
 9 10 -14 4.47 1.6 1
 9 10 -13 13.57 1.79 1
 9 10 -12 5.71 1.97 1
 9 10 -11 2.55 1.45 1
 9 10 -10 0.76 1.44 1
 9 10 -9 23.55 1.98 1
 9 10 -8 3.98 1.5 1
 9 10 -7 8.31 1.99 1
 9 10 -6 3.21 1.57 1
 9 10 -5 11.48 1.79 1
 9 10 -4 2.3 1.38 1
 9 10 -3 25.05 1.65 1
 9 10 -2 11.91 1.32 1
 9 10 -1 11.93 1.32 1
 9 10 0 0.68 1.25 1
 9 10 1 11.79 1.33 1
 9 10 2 9.99 1.65 1
 9 10 3 27.62 1.65 1
 9 10 4 4.05 1.44 1
 9 10 5 10.22 1.41 1
 9 10 6 4.06 1.39 1
 9 10 7 14.32 1.78 1
 9 10 8 2.98 1.46 1
 9 10 9 22.87 2.72 1
 9 10 10 0.53 1.92 1
 9 10 11 1.85 1.92 1
 9 10 12 3.34 1.88 1
 9 10 13 11.5 2.35 1
 9 10 14 2.7 2.42 1
 9 11 -11 6.73 1.62 1
 9 11 -10 11.17 1.65 1
 9 11 -9 0.26 1.53 1
 9 11 -8 1.61 1.54 1
 9 11 -7 5.72 1.73 1
 9 11 -6 9.47 1.91 1
 9 11 -5 6.53 1.56 1
 9 11 -4 3.94 1.54 1
 9 11 -3 1.08 1.47 1
 9 11 -2 7.03 1.44 1
 9 11 -1 8.35 1.58 1
 9 11 0 9.09 1.48 1
 9 11 1 10.5 1.43 1
 9 11 2 13.3 1.55 1
 9 11 3 1.32 1.49 1
 9 11 4 3.74 1.62 1
 9 11 5 6.98 1.49 1
 9 11 6 10.07 1.58 1
 9 11 7 6.61 1.58 1
 9 11 8 4.32 1.68 1
 9 11 9 4.51 2.03 1
 9 11 10 9.89 1.88 1
 9 11 11 4.81 1.98 1
 9 12 -5 5.57 2.38 1
 9 12 -4 5.3 2.39 1
 9 12 -3 4.29 1.84 1
 9 12 -2 5.24 1.77 1
 9 12 -1 6.18 1.91 1
 9 12 0 5.07 2.6 1
 9 12 1 3.09 1.67 1
 9 12 2 2.68 2.2 1
 9 12 3 3.82 1.69 1
 9 12 4 3.4 1.6 1
 9 12 5 1.32 1.54 1
 10 0 0 21.1 2.86 1
 10 0 1 3.09 1.2 1
 10 0 2 120.94 4.26 1
 10 0 3 339.91 10.71 1
 10 0 4 182.86 5.79 1
 10 0 5 173.14 5.64 1
 10 0 6 153.33 4.91 1
 10 0 7 233.22 10.8 1
 10 0 8 383.61 11.4 1
 10 0 9 39.74 1.56 1
 10 0 10 36.95 1.49 1
 10 0 11 42.63 1.75 1
 10 0 12 95.52 3.16 1
 10 0 13 20.26 1.34 1
 10 0 14 186.56 5.69 1
 10 0 15 9.81 1.26 1
 10 0 16 0.09 1.24 1
 10 0 17 11.4 1.48 1
 10 0 18 94.95 3.71 1
 10 0 19 3.86 1.58 1
 10 0 20 5.05 1.6 1
 10 0 21 2.66 1.34 1
 10 0 22 31.84 1.9 1
 10 0 23 4.05 1.81 1
 10 1 -23 1.21 1.61 1
 10 1 -22 8.52 1.52 1
 10 1 -21 3.34 1.5 1
 10 1 -20 35.79 1.81 1
 10 1 -19 5.37 1.3 1
 10 1 -18 2.99 1.25 1
 10 1 -17 3.22 1.45 1
 10 1 -16 96.69 3.29 1
 10 1 -15 39.19 1.67 1
 10 1 -14 35.04 1.53 1
 10 1 -13 4.02 1.03 1
 10 1 -12 188.53 5.88 1
 10 1 -11 87.27 2.9 1
 10 1 -10 295.55 8.82 1
 10 1 -9 32.76 1.45 1
 10 1 -8 102.83 3.1 1
 10 1 -7 217.16 6.2 1
 10 1 -6 247.91 7.55 1
 10 1 -5 177.58 4.93 1
 10 1 -4 146.2 4.78 1
 10 1 -3 144.07 4.73 1
 10 1 -2 11.3 1 1
 10 1 -1 172 5.78 1
 10 1 0 9.2 1.27 1
 10 1 1 174.11 5.96 1
 10 1 2 9.35 1.31 1
 10 1 3 132.11 4.31 1
 10 1 4 147.3 5.23 1
 10 1 5 181.54 6.58 1
 10 1 6 240.56 8.91 1
 10 1 7 218.14 7.59 1
 10 1 8 98.98 3.82 1
 10 1 9 34.19 1.8 1
 10 1 10 291.86 8.86 1
 10 1 11 86.21 2.79 1
 10 1 12 187.29 5.74 1
 10 1 13 2.29 1.17 1
 10 1 14 37.36 1.6 1
 10 1 15 36.95 1.68 1
 10 1 16 96.92 3.21 1
 10 1 17 1.93 1.28 1
 10 1 18 1.82 1.23 1
 10 1 19 4.98 1.25 1
 10 1 20 32.06 2.39 1
 10 1 21 4.52 1.33 1
 10 1 22 5.87 1.62 1
 10 1 23 3.83 1.61 1
 10 2 -23 10.13 1.71 1
 10 2 -22 9.81 1.54 1
 10 2 -21 2.8 1.66 1
 10 2 -20 6.17 1.63 1
 10 2 -19 13.4 1.45 1
 10 2 -18 14.22 1.34 1
 10 2 -17 17.12 1.42 1
 10 2 -16 23.54 1.49 1
 10 2 -15 16.57 1.38 1
 10 2 -14 49.02 2.36 1
 10 2 -13 34.47 1.48 1
 10 2 -12 131.98 4.81 1
 10 2 -11 168.36 6.17 1
 10 2 -10 113.57 3.69 1
 10 2 -9 106.48 3.36 1
 10 2 -8 147.9 4.4 1
 10 2 -7 127.36 3.99 1
 10 2 -6 102.62 3.54 1
 10 2 -5 322.11 9.32 1
 10 2 -4 19.97 1.04 1
 10 2 -3 39.47 1.47 1
 10 2 -2 33.07 1.48 1
 10 2 -1 397.29 12.78 1
 10 2 0 306.64 9.56 1
 10 2 1 397.26 12.43 1
 10 2 2 31.64 1.42 1
 10 2 3 40.64 2.07 1
 10 2 4 22.38 2.16 1
 10 2 5 322.19 11.85 1
 10 2 6 103.42 4.84 1
 10 2 7 118.83 4.08 1
 10 2 8 146.76 5.02 1
 10 2 9 110.04 4.02 1
 10 2 10 111.74 3.75 1
 10 2 11 163.03 5.62 1
 10 2 12 131.41 4.65 1
 10 2 13 35.18 1.74 1
 10 2 14 49.23 1.96 1
 10 2 15 15.76 1.68 1
 10 2 16 23.19 1.87 1
 10 2 17 18.46 1.46 1
 10 2 18 14.51 1.53 1
 10 2 19 11.53 1.61 1
 10 2 20 2.6 1.32 1
 10 2 21 1.27 1.57 1
 10 2 22 9.76 1.76 1
 10 2 23 9.52 2.06 1
 10 3 -22 5.22 1.62 1
 10 3 -21 17.73 1.87 1
 10 3 -20 2.53 1.43 1
 10 3 -19 11.72 1.84 1
 10 3 -18 11.16 1.63 1
 10 3 -17 22.5 1.41 1
 10 3 -16 6.95 1.2 1
 10 3 -15 2 1.4 1
 10 3 -14 31.43 1.53 1
 10 3 -13 64.58 2.18 1
 10 3 -12 1.24 1.05 1
 10 3 -11 8.21 1.08 1
 10 3 -10 30.25 1.48 1
 10 3 -9 148.82 5.74 1
 10 3 -8 51.57 2.02 1
 10 3 -7 88.01 2.81 1
 10 3 -6 105.29 3.29 1
 10 3 -5 34.29 1.52 1
 10 3 -4 97.44 3.06 1
 10 3 -3 447.56 12.83 1
 10 3 -2 206.89 5.96 1
 10 3 -1 293.18 8.04 1
 10 3 0 1.33 1.07 1
 10 3 1 287.25 12.7 1
 10 3 2 209.88 7.59 1
 10 3 3 443.65 16.13 1
 10 3 4 99.34 5.37 1
 10 3 5 33.66 1.94 1
 10 3 6 103 4.13 1
 10 3 7 89.74 3.18 1
 10 3 8 55.34 2.3 1
 10 3 9 146.34 5.68 1
 10 3 10 32.3 1.7 1
 10 3 11 8.65 1.33 1
 10 3 12 1.58 1.36 1
 10 3 13 64.1 2.61 1
 10 3 14 28.64 1.76 1
 10 3 15 6.21 1.24 1
 10 3 16 8.57 1.25 1
 10 3 17 19.5 1.51 1
 10 3 18 11.45 1.57 1
 10 3 19 11.64 1.44 1
 10 3 20 1.89 1.77 1
 10 3 21 15.97 1.89 1
 10 3 22 1.76 1.79 1
 10 4 -21 5.52 1.68 1
 10 4 -20 3.36 1.59 1
 10 4 -19 18.51 1.97 1
 10 4 -18 5.38 1.4 1
 10 4 -17 20.05 1.58 1
 10 4 -16 1.17 1.36 1
 10 4 -15 14.48 1.48 1
 10 4 -14 6.28 1.34 1
 10 4 -13 21.33 1.72 1
 10 4 -12 0.6 1.25 1
 10 4 -11 26.99 1.29 1
 10 4 -10 40.23 1.61 1
 10 4 -9 12.19 1.11 1
 10 4 -8 66.83 2.44 1
 10 4 -7 46.15 1.83 1
 10 4 -6 144.31 4.53 1
 10 4 -5 237.88 7.04 1
 10 4 -4 156.12 4.84 1
 10 4 -3 28.03 1.28 1
 10 4 -2 119.06 3.67 1
 10 4 -1 374.05 10.55 1
 10 4 0 37.86 1.51 1
 10 4 1 368.59 11.95 1
 10 4 2 120 4.43 1
 10 4 3 23.65 1.34 1
 10 4 4 150.67 5.1 1
 10 4 5 236.18 7.63 1
 10 4 6 146.13 4.95 1
 10 4 7 48.01 2.15 1
 10 4 8 63.93 2.42 1
 10 4 9 13.4 1.56 1
 10 4 10 43.38 2.11 1
 10 4 11 24.87 1.81 1
 10 4 12 1.59 1.43 1
 10 4 13 23.21 1.73 1
 10 4 14 5.41 1.6 1
 10 4 15 13.58 1.69 1
 10 4 16 1.8 1.37 1
 10 4 17 21.44 1.64 1
 10 4 18 3.39 1.59 1
 10 4 19 20.34 2.72 1
 10 4 20 5.25 2.35 1
 10 4 21 6.5 1.69 1
 10 5 -21 6.39 1.89 1
 10 5 -20 1.17 1.43 1
 10 5 -19 1.23 1.49 1
 10 5 -18 20.42 2.06 1
 10 5 -17 3.8 1.49 1
 10 5 -16 -1.09 5.52 1
 10 5 -15 4.28 1.76 1
 10 5 -14 10.03 1.43 1
 10 5 -13 4.34 1.37 1
 10 5 -12 13.58 1.68 1
 10 5 -11 3.87 1.68 1
 10 5 -10 4.92 1.43 1
 10 5 -9 85.99 3.49 1
 10 5 -8 27.33 1.28 1
 10 5 -7 40.39 1.89 1
 10 5 -6 37.83 1.9 1
 10 5 -5 105.12 3.28 1
 10 5 -4 136.88 4.12 1
 10 5 -3 173.45 5.27 1
 10 5 -2 32.05 1.43 1
 10 5 -1 18.85 1.09 1
 10 5 0 332.02 9.81 1
 10 5 1 18.67 1.15 1
 10 5 2 29.56 1.49 1
 10 5 3 175.34 5.86 1
 10 5 4 132.88 4.53 1
 10 5 5 101.94 4.38 1
 10 5 6 37.48 2.28 1
 10 5 7 40.63 2 1
 10 5 8 30.24 1.66 1
 10 5 9 90.92 3.38 1
 10 5 10 2.58 1.88 1
 10 5 11 4.12 1.42 1
 10 5 12 14.27 1.51 1
 10 5 13 3.99 1.86 1
 10 5 14 9.91 1.99 1
 10 5 15 7.12 1.58 1
 10 5 16 1.42 1.72 1
 10 5 17 4.44 2.29 1
 10 5 18 18.52 1.93 1
 10 5 19 -0.41 5.64 1
 10 5 20 1.95 1.93 1
 10 5 21 7.88 1.89 1
 10 6 -19 1.55 1.56 1
 10 6 -18 2.66 1.46 1
 10 6 -17 16.84 1.68 1
 10 6 -16 18.4 1.68 1
 10 6 -15 1.89 1.37 1
 10 6 -14 6.25 1.34 1
 10 6 -13 9.83 1.74 1
 10 6 -12 14.27 1.44 1
 10 6 -11 16.5 1.41 1
 10 6 -10 16.32 1.55 1
 10 6 -9 19.71 1.57 1
 10 6 -8 4.49 1.3 1
 10 6 -7 85.23 2.96 1
 10 6 -6 3.01 1.14 1
 10 6 -5 148.78 5.57 1
 10 6 -4 28.73 1.56 1
 10 6 -3 25.74 1.4 1
 10 6 -2 132.85 4.08 1
 10 6 -1 123.58 4.03 1
 10 6 0 27.74 1.33 1
 10 6 1 119.46 3.74 1
 10 6 2 132.66 4.73 1
 10 6 3 26.5 1.88 1
 10 6 4 28.74 1.66 1
 10 6 5 147.15 5.77 1
 10 6 6 4.04 1.41 1
 10 6 7 79.58 3.14 1
 10 6 8 5.15 1.36 1
 10 6 9 21.69 1.58 1
 10 6 10 15.2 1.51 1
 10 6 11 14.18 1.75 1
 10 6 12 12.93 1.76 1
 10 6 13 11.32 2.25 1
 10 6 14 6.64 1.61 1
 10 6 15 1.36 1.59 1
 10 6 16 18.12 2.58 1
 10 6 17 13.41 2.23 1
 10 6 18 1.84 1.92 1
 10 6 19 3.95 2.07 1
 10 7 -18 6.16 1.53 1
 10 7 -17 12.01 1.54 1
 10 7 -16 3.82 1.68 1
 10 7 -15 12.24 2.18 1
 10 7 -14 7.76 1.62 1
 10 7 -13 12.85 1.45 1
 10 7 -12 13.91 1.46 1
 10 7 -11 5.49 1.38 1
 10 7 -10 1.03 1.87 1
 10 7 -9 11.79 1.48 1
 10 7 -8 11.48 1.58 1
 10 7 -7 46.59 2.73 1
 10 7 -6 23.1 1.64 1
 10 7 -5 3.57 1.32 1
 10 7 -4 5.74 1.15 1
 10 7 -3 163.23 4.77 1
 10 7 -2 16.48 1.27 1
 10 7 -1 67.18 2.27 1
 10 7 0 5.57 1.12 1
 10 7 1 67.91 2.57 1
 10 7 2 18.98 1.2 1
 10 7 3 160.36 4.73 1
 10 7 4 3.88 1.16 1
 10 7 5 4.26 1.36 1
 10 7 6 23.02 1.65 1
 10 7 7 45.85 2.77 1
 10 7 8 11.69 1.56 1
 10 7 9 12.98 1.74 1
 10 7 10 3.33 1.6 1
 10 7 11 2.3 1.6 1
 10 7 12 12.7 2.06 1
 10 7 13 13.28 1.84 1
 10 7 14 11.88 1.76 1
 10 7 15 15.2 2.25 1
 10 7 16 4.25 1.74 1
 10 7 17 11.4 2.16 1
 10 7 18 9.01 1.94 1
 10 8 -16 9.4 1.65 1
 10 8 -15 9.79 1.62 1
 10 8 -14 10.82 1.45 1
 10 8 -13 1.34 1.49 1
 10 8 -12 12.53 1.7 1
 10 8 -11 20.63 1.73 1
 10 8 -10 27.91 2.18 1
 10 8 -9 2.43 1.41 1
 10 8 -8 18.15 1.96 1
 10 8 -7 7.43 1.38 1
 10 8 -6 18.92 1.55 1
 10 8 -5 35.98 1.97 1
 10 8 -4 19.92 1.54 1
 10 8 -3 24.01 1.4 1
 10 8 -2 9.51 1.25 1
 10 8 -1 82.56 2.85 1
 10 8 0 2.62 1.31 1
 10 8 1 80.54 2.87 1
 10 8 2 9.54 1.47 1
 10 8 3 22.71 1.38 1
 10 8 4 19.89 1.76 1
 10 8 5 41.53 2.18 1
 10 8 6 19.11 1.58 1
 10 8 7 6.95 1.56 1
 10 8 8 20.1 1.72 1
 10 8 9 1.04 1.78 1
 10 8 10 26.51 1.99 1
 10 8 11 27.66 2.48 1
 10 8 12 9.9 1.73 1
 10 8 13 3.45 1.72 1
 10 8 14 14.25 2.9 1
 10 8 15 9.62 3.32 1
 10 8 16 6.16 1.86 1
 10 9 -14 6.04 1.75 1
 10 9 -13 4.36 1.9 1
 10 9 -12 17.39 1.82 1
 10 9 -11 4.52 1.57 1
 10 9 -10 17.05 2.26 1
 10 9 -9 11.53 1.63 1
 10 9 -8 17.13 1.79 1
 10 9 -7 5.75 1.39 1
 10 9 -6 23.4 2.14 1
 10 9 -5 6.46 1.66 1
 10 9 -4 5.23 1.69 1
 10 9 -3 20.28 1.56 1
 10 9 -2 7.04 1.63 1
 10 9 -1 24.08 1.51 1
 10 9 0 1.86 1.2 1
 10 9 1 24.22 1.46 1
 10 9 2 7.16 1.23 1
 10 9 3 22.31 1.69 1
 10 9 4 3.61 1.4 1
 10 9 5 4.87 1.34 1
 10 9 6 23.68 2.29 1
 10 9 7 6.06 2.14 1
 10 9 8 16.26 2.22 1
 10 9 9 11.05 1.65 1
 10 9 10 14.68 2.56 1
 10 9 11 3.79 2.39 1
 10 9 12 17.55 2.4 1
 10 9 13 4.95 1.74 1
 10 9 14 3.67 1.94 1
 10 10 -11 5.01 1.82 1
 10 10 -10 3.58 1.48 1
 10 10 -9 5.69 1.98 1
 10 10 -8 13.18 2.3 1
 10 10 -7 9.9 2.48 1
 10 10 -6 2.9 2.62 1
 10 10 -5 6.79 1.67 1
 10 10 -4 15.33 1.77 1
 10 10 -3 16.05 1.75 1
 10 10 -2 7.4 1.67 1
 10 10 -1 1.58 1.88 1
 10 10 0 11.81 1.66 1
 10 10 1 1.85 1.33 1
 10 10 2 4.19 1.53 1
 10 10 3 14.74 1.48 1
 10 10 4 18.84 2.16 1
 10 10 5 6.37 1.6 1
 10 10 6 1.63 2.7 1
 10 10 7 11.7 1.7 1
 10 10 8 10.99 1.69 1
 10 10 9 3.99 1.71 1
 10 10 10 4.8 2.32 1
 10 10 11 1.15 1.9 1
 10 11 -6 1.49 1.89 1
 10 11 -5 5.75 2.05 1
 10 11 -4 3.43 2.4 1
 10 11 -3 1.51 1.7 1
 10 11 -2 6.16 1.72 1
 10 11 -1 0.97 1.69 1
 10 11 0 5.73 1.98 1
 10 11 1 4.19 1.83 1
 10 11 2 6.92 1.84 1
 10 11 3 5.35 1.87 1
 10 11 4 1.85 1.65 1
 10 11 5 4.48 2.56 1
 10 11 6 5.94 1.73 1
 11 0 1 7.45 1.53 1
 11 0 2 6.38 1.23 1
 11 0 3 49.11 2.11 1
 11 0 4 5 1.04 1
 11 0 5 16.76 1.38 1
 11 0 6 48.11 1.87 1
 11 0 7 14.34 1.21 1
 11 0 8 46.62 2.48 1
 11 0 9 33.79 1.45 1
 11 0 10 4.42 1.2 1
 11 0 11 33.57 1.52 1
 11 0 12 98.22 3.5 1
 11 0 13 2.08 1.24 1
 11 0 14 23.08 1.81 1
 11 0 15 37.32 2.37 1
 11 0 16 9.95 1.34 1
 11 0 17 10.22 1.44 1
 11 0 18 6.27 1.34 1
 11 0 19 3.93 1.38 1
 11 0 20 4.55 1.9 1
 11 0 21 3.29 1.81 1
 11 1 -21 10.73 2.96 1
 11 1 -20 19.6 2.32 1
 11 1 -19 20.38 1.76 1
 11 1 -18 3.08 1.41 1
 11 1 -17 4.02 1.33 1
 11 1 -16 36.32 2.13 1
 11 1 -15 16.71 1.33 1
 11 1 -14 29.43 1.73 1
 11 1 -13 42.41 1.99 1
 11 1 -12 3.09 1.47 1
 11 1 -11 8.23 1.15 1
 11 1 -10 85.58 2.73 1
 11 1 -9 57.4 1.91 1
 11 1 -8 62.84 2.26 1
 11 1 -7 21.35 1.12 1
 11 1 -6 21.42 1.34 1
 11 1 -5 23.09 1.43 1
 11 1 -4 56.53 2.17 1
 11 1 -3 59.56 2.27 1
 11 1 -2 157.2 5.13 1
 11 1 -1 43.97 2.02 1
 11 1 0 4.8 1.71 1
 11 1 1 44.53 2.64 1
 11 1 2 167.37 5.82 1
 11 1 3 58.44 2.44 1
 11 1 4 50.98 1.99 1
 11 1 5 21.2 1.28 1
 11 1 6 23.84 2.38 1
 11 1 7 23.02 2.31 1
 11 1 8 59.19 2.46 1
 11 1 9 56.22 2.17 1
 11 1 10 82.9 2.9 1
 11 1 11 7.13 1.64 1
 11 1 12 3.51 1.28 1
 11 1 13 41.33 1.97 1
 11 1 14 28.79 1.56 1
 11 1 15 15.96 1.44 1
 11 1 16 33.84 1.65 1
 11 1 17 5.37 1.32 1
 11 1 18 2.77 1.39 1
 11 1 19 16.54 1.55 1
 11 1 20 17.46 2.16 1
 11 1 21 10.38 1.9 1
 11 2 -20 9.79 1.64 1
 11 2 -19 22.17 1.64 1
 11 2 -18 22.79 1.85 1
 11 2 -17 51.51 2.26 1
 11 2 -16 13.51 1.45 1
 11 2 -15 5.89 1.33 1
 11 2 -14 15.68 1.48 1
 11 2 -13 18.02 1.32 1
 11 2 -12 36.37 1.65 1
 11 2 -11 14.4 1.28 1
 11 2 -10 18.19 1.18 1
 11 2 -9 2.6 0.99 1
 11 2 -8 39.2 1.56 1
 11 2 -7 5.63 1.08 1
 11 2 -6 81.6 2.63 1
 11 2 -5 9.53 0.96 1
 11 2 -4 14.8 1.39 1
 11 2 -3 28.88 1.56 1
 11 2 -2 36.14 1.58 1
 11 2 -1 57.52 2.12 1
 11 2 0 59.74 2.46 1
 11 2 1 57.28 2.57 1
 11 2 2 34.33 1.57 1
 11 2 3 27.58 1.65 1
 11 2 4 12.41 1.24 1
 11 2 5 9.6 1.43 1
 11 2 6 81.32 4.43 1
 11 2 7 5.37 1.32 1
 11 2 8 39.77 2.54 1
 11 2 9 1.81 1.2 1
 11 2 10 21.39 1.45 1
 11 2 11 14.07 1.35 1
 11 2 12 38.01 1.95 1
 11 2 13 16.54 1.83 1
 11 2 14 16.65 1.73 1
 11 2 15 3.57 1.27 1
 11 2 16 11.24 2.03 1
 11 2 17 52.96 3.08 1
 11 2 18 21.98 2.07 1
 11 2 19 21.46 1.99 1
 11 2 20 8.77 1.81 1
 11 3 -20 0.58 1.55 1
 11 3 -19 36.96 2.46 1
 11 3 -18 23.29 2.14 1
 11 3 -17 15.09 1.69 1
 11 3 -16 24.65 1.85 1
 11 3 -15 81.91 3.52 1
 11 3 -14 41.92 1.8 1
 11 3 -13 19.3 1.36 1
 11 3 -12 28.67 1.9 1
 11 3 -11 27.91 1.42 1
 11 3 -10 32.82 1.68 1
 11 3 -9 29.55 1.45 1
 11 3 -8 23.8 1.28 1
 11 3 -7 60.01 2.23 1
 11 3 -6 52.22 1.95 1
 11 3 -5 63.52 2.08 1
 11 3 -4 83.71 2.59 1
 11 3 -3 97.95 3.31 1
 11 3 -2 62.17 3.72 1
 11 3 -1 54.67 2.37 1
 11 3 0 37.03 1.64 1
 11 3 1 57.23 2.17 1
 11 3 2 69.66 2.5 1
 11 3 3 94.47 4.04 1
 11 3 4 85.55 3.37 1
 11 3 5 60.2 3.32 1
 11 3 6 54.54 3.06 1
 11 3 7 61.88 2.79 1
 11 3 8 24.75 1.49 1
 11 3 9 27.87 1.51 1
 11 3 10 36.18 2.07 1
 11 3 11 27.75 2.29 1
 11 3 12 22.34 2.38 1
 11 3 13 15.72 1.99 1
 11 3 14 40.75 2.1 1
 11 3 15 77.52 3.21 1
 11 3 16 28.01 2.13 1
 11 3 17 18.46 1.7 1
 11 3 18 16.58 2.27 1
 11 3 19 35.09 2.02 1
 11 3 20 5.12 1.79 1
 11 4 -19 8.61 1.62 1
 11 4 -18 14.77 1.62 1
 11 4 -17 22.81 1.74 1
 11 4 -16 12.12 2.4 1
 11 4 -15 17.86 1.53 1
 11 4 -14 85.58 3.14 1
 11 4 -13 42.14 2.25 1
 11 4 -12 14.69 1.25 1
 11 4 -11 18.95 1.29 1
 11 4 -10 89.25 2.83 1
 11 4 -9 14.2 1.36 1
 11 4 -8 85.36 3.88 1
 11 4 -7 26.85 1.46 1
 11 4 -6 8.24 1.36 1
 11 4 -5 26.02 1.47 1
 11 4 -4 154.19 4.54 1
 11 4 -3 59.82 2.01 1
 11 4 -2 20.92 1.26 1
 11 4 -1 6.22 1.08 1
 11 4 0 137.78 7.51 1
 11 4 1 6.87 1.59 1
 11 4 2 18.34 1.6 1
 11 4 3 66.01 3.48 1
 11 4 4 149.81 6.58 1
 11 4 5 21.84 2.65 1
 11 4 6 9.01 1.2 1
 11 4 7 25.24 1.48 1
 11 4 8 84.33 3.22 1
 11 4 9 14.7 1.37 1
 11 4 10 87.91 3.35 1
 11 4 11 20.43 1.85 1
 11 4 12 16.26 1.75 1
 11 4 13 41.74 2.23 1
 11 4 14 87.51 3.61 1
 11 4 15 12.43 1.8 1
 11 4 16 13.91 1.74 1
 11 4 17 24.88 2.08 1
 11 4 18 12.85 1.72 1
 11 4 19 13.09 1.82 1
 11 5 -18 6.79 1.49 1
 11 5 -17 17.68 1.69 1
 11 5 -16 22.48 1.93 1
 11 5 -15 3.65 1.38 1
 11 5 -14 1.94 2.01 1
 11 5 -13 15.57 2.04 1
 11 5 -12 140.18 4.48 1
 11 5 -11 0.02 1.38 1
 11 5 -10 71.22 2.82 1
 11 5 -9 22.94 1.5 1
 11 5 -8 145.04 4.72 1
 11 5 -7 10.01 1.25 1
 11 5 -6 132.84 4.19 1
 11 5 -5 11.32 1.14 1
 11 5 -4 30.63 1.73 1
 11 5 -3 56.71 2.01 1
 11 5 -2 55.92 2.1 1
 11 5 -1 105.22 3.78 1
 11 5 0 4.29 1.02 1
 11 5 1 108.85 3.8 1
 11 5 2 52.06 2.1 1
 11 5 3 56.5 2.87 1
 11 5 4 28.5 1.76 1
 11 5 5 11.35 1.38 1
 11 5 6 125.24 4.44 1
 11 5 7 8.42 1.29 1
 11 5 8 146.53 5.27 1
 11 5 9 22.7 1.9 1
 11 5 10 65.9 3.21 1
 11 5 11 2.9 1.77 1
 11 5 12 142.01 5.45 1
 11 5 13 17.83 2.03 1
 11 5 14 4.72 1.61 1
 11 5 15 6.12 1.67 1
 11 5 16 20.71 1.9 1
 11 5 17 18.31 1.83 1
 11 5 18 8.18 1.77 1
 11 6 -17 6.97 1.55 1
 11 6 -16 14.53 2.06 1
 11 6 -15 12.57 1.55 1
 11 6 -14 17.32 1.51 1
 11 6 -13 10.17 1.51 1
 11 6 -12 13 2.04 1
 11 6 -11 11.29 1.97 1
 11 6 -10 80.32 3.07 1
 11 6 -9 36.47 1.77 1
 11 6 -8 54.88 2.62 1
 11 6 -7 8.58 1.18 1
 11 6 -6 47.84 2.09 1
 11 6 -5 84.97 3.24 1
 11 6 -4 43.8 2.05 1
 11 6 -3 25.41 1.29 1
 11 6 -2 5.01 1.02 1
 11 6 -1 96.93 3.22 1
 11 6 0 12.27 1.15 1
 11 6 1 96.29 3.33 1
 11 6 2 7.01 1.43 1
 11 6 3 26.32 1.81 1
 11 6 4 44.34 3.13 1
 11 6 5 81.44 3.35 1
 11 6 6 50.45 3.61 1
 11 6 7 8.89 1.59 1
 11 6 8 60.36 2.83 1
 11 6 9 35.27 2.24 1
 11 6 10 85.88 5.1 1
 11 6 11 10.54 1.7 1
 11 6 12 14.21 1.7 1
 11 6 13 9.77 1.67 1
 11 6 14 16.38 1.7 1
 11 6 15 11.97 1.73 1
 11 6 16 14.33 2.36 1
 11 6 17 4.3 1.84 1
 11 7 -15 8.04 1.47 1
 11 7 -14 31.92 2.58 1
 11 7 -13 10.49 1.53 1
 11 7 -12 6.34 1.45 1
 11 7 -11 24.55 1.96 1
 11 7 -10 11.98 1.47 1
 11 7 -9 9.66 2.13 1
 11 7 -8 14.75 2.15 1
 11 7 -7 66.42 3.74 1
 11 7 -6 10.23 1.34 1
 11 7 -5 1.12 1.17 1
 11 7 -4 4.6 1.21 1
 11 7 -3 92.93 3.42 1
 11 7 -2 13.88 1.27 1
 11 7 -1 28.24 1.59 1
 11 7 0 3.18 1.21 1
 11 7 1 22.11 1.41 1
 11 7 2 12.62 1.26 1
 11 7 3 91.88 3.92 1
 11 7 4 3.75 1.62 1
 11 7 5 2.9 1.48 1
 11 7 6 10.21 1.52 1
 11 7 7 68.35 2.71 1
 11 7 8 11.7 1.94 1
 11 7 9 11.39 1.6 1
 11 7 10 9.09 2.18 1
 11 7 11 27.41 2.18 1
 11 7 12 9.18 1.69 1
 11 7 13 9.26 1.7 1
 11 7 14 29.77 2.87 1
 11 7 15 9.9 1.75 1
 11 8 -13 8.47 1.56 1
 11 8 -12 29.47 2.05 1
 11 8 -11 3.71 1.59 1
 11 8 -10 9.82 1.43 1
 11 8 -9 5.89 1.41 1
 11 8 -8 9.29 1.51 1
 11 8 -7 1.53 1.64 1
 11 8 -6 12.99 1.46 1
 11 8 -5 27.85 1.72 1
 11 8 -4 5.87 1.63 1
 11 8 -3 1.85 1.41 1
 11 8 -2 3.96 1.46 1
 11 8 -1 33.79 1.93 1
 11 8 0 2.37 1.37 1
 11 8 1 34.89 1.69 1
 11 8 2 2.5 1.22 1
 11 8 3 5.11 1.73 1
 11 8 4 5.16 1.54 1
 11 8 5 29.3 2.55 1
 11 8 6 12.94 1.75 1
 11 8 7 2.97 1.82 1
 11 8 8 7.22 2.02 1
 11 8 9 8.24 1.82 1
 11 8 10 10.45 1.87 1
 11 8 11 2.54 1.65 1
 11 8 12 27.65 1.92 1
 11 8 13 8.72 1.66 1
 11 9 -10 7.88 1.62 1
 11 9 -9 4.76 1.55 1
 11 9 -8 10.68 1.55 1
 11 9 -7 6.74 1.67 1
 11 9 -6 4.46 2.41 1
 11 9 -5 9.12 1.75 1
 11 9 -4 5.18 1.48 1
 11 9 -3 6.03 1.46 1
 11 9 -2 4.41 1.46 1
 11 9 -1 4.16 1.41 1
 11 9 0 0.33 1.5 1
 11 9 1 4.03 1.74 1
 11 9 2 7.72 1.75 1
 11 9 3 7.58 1.49 1
 11 9 4 5.19 2.07 1
 11 9 5 6.28 1.71 1
 11 9 6 5.76 1.63 1
 11 9 7 6.78 1.66 1
 11 9 8 9.96 1.7 1
 11 9 9 5.45 1.82 1
 11 9 10 8.62 1.71 1
 11 10 -5 6.64 1.83 1
 11 10 -4 4.57 2.03 1
 11 10 -3 5.42 1.82 1
 11 10 -2 2.66 1.78 1
 11 10 -1 0.39 2.33 1
 11 10 0 4.52 3.31 1
 11 10 1 2.32 2.03 1
 11 10 2 1.83 1.88 1
 11 10 3 4.94 2.17 1
 11 10 4 0.84 1.8 1
 11 10 5 3.53 1.96 1
 12 0 0 0.92 1.79 1
 12 0 1 161.65 5.55 1
 12 0 2 61.62 2.61 1
 12 0 3 637.62 21.48 1
 12 0 4 4.16 1.06 1
 12 0 5 39.69 1.79 1
 12 0 6 126.7 4.22 1
 12 0 7 316.26 10.07 1
 12 0 8 -0.11 4.85 1
 12 0 9 97.6 4.3 1
 12 0 10 6.36 1.44 1
 12 0 11 55.92 2.08 1
 12 0 12 28.64 1.78 1
 12 0 13 20.3 1.65 1
 12 0 14 1.99 1.54 1
 12 0 15 21.27 1.68 1
 12 0 16 17.84 1.73 1
 12 0 17 5.51 1.84 1
 12 0 18 -1.23 5.95 1
 12 1 -18 19.9 3.16 1
 12 1 -17 4.27 1.64 1
 12 1 -16 3.72 1.66 1
 12 1 -15 5.73 1.43 1
 12 1 -14 38.99 1.98 1
 12 1 -13 2.7 2.33 1
 12 1 -12 10.63 1.3 1
 12 1 -11 52.34 2.25 1
 12 1 -10 14.92 1.29 1
 12 1 -9 55.62 2.39 1
 12 1 -8 40.19 3.56 1
 12 1 -7 85.52 4.97 1
 12 1 -6 3.05 1.16 1
 12 1 -5 354.57 13.36 1
 12 1 -4 108.69 4.31 1
 12 1 -3 14.68 1.2 1
 12 1 -2 29.67 2.74 1
 12 1 -1 395.21 13.21 1
 12 1 0 67.64 2.84 1
 12 1 1 376.52 12.45 1
 12 1 2 28.52 1.61 1
 12 1 3 17.22 1.43 1
 12 1 4 107.28 4.68 1
 12 1 5 354.01 14.39 1
 12 1 6 5.38 1.45 1
 12 1 7 89.05 3.81 1
 12 1 8 41 4.26 1
 12 1 9 50.78 4.07 1
 12 1 10 14.67 2.25 1
 12 1 11 53.55 2.55 1
 12 1 12 14.11 1.61 1
 12 1 13 2.3 1.55 1
 12 1 14 37.86 2.74 1
 12 1 15 5 1.64 1
 12 1 16 1.01 1.61 1
 12 1 17 5.08 1.66 1
 12 1 18 17.73 1.95 1
 12 2 -18 11.16 1.85 1
 12 2 -17 1.73 1.78 1
 12 2 -16 40.9 1.94 1
 12 2 -15 13.84 1.43 1
 12 2 -14 10.58 1.31 1
 12 2 -13 15.41 1.39 1
 12 2 -12 68.57 2.44 1
 12 2 -11 16.97 1.23 1
 12 2 -10 96.86 3.14 1
 12 2 -9 60.06 2.16 1
 12 2 -8 31.78 1.48 1
 12 2 -7 21.48 1.47 1
 12 2 -6 109.96 4.3 1
 12 2 -5 10.87 1.59 1
 12 2 -4 21.23 1.85 1
 12 2 -3 179.41 7.19 1
 12 2 -2 39.62 2.26 1
 12 2 -1 93.16 3.56 1
 12 2 0 120.87 8.45 1
 12 2 1 96.75 3.99 1
 12 2 2 38.17 2.05 1
 12 2 3 186.41 7.4 1
 12 2 4 19.64 1.6 1
 12 2 5 7.38 1.1 1
 12 2 6 111.93 4.62 1
 12 2 7 21.69 1.96 1
 12 2 8 32.36 3.08 1
 12 2 9 64.07 3.28 1
 12 2 10 92.01 3.86 1
 12 2 11 15.56 1.63 1
 12 2 12 72.04 3.65 1
 12 2 13 15.9 1.61 1
 12 2 14 13.09 1.8 1
 12 2 15 16.7 3.43 1
 12 2 16 37.37 3.38 1
 12 2 17 4.58 1.98 1
 12 2 18 11.86 2.33 1
 12 3 -17 14.57 1.5 1
 12 3 -16 2.48 1.54 1
 12 3 -15 1.12 1.31 1
 12 3 -14 38.22 1.81 1
 12 3 -13 47.62 2.31 1
 12 3 -12 40.7 1.85 1
 12 3 -11 22.28 1.4 1
 12 3 -10 34.53 1.57 1
 12 3 -9 22.89 1.32 1
 12 3 -8 89.64 2.96 1
 12 3 -7 39.69 1.64 1
 12 3 -6 10.46 1.1 1
 12 3 -5 37.02 1.6 1
 12 3 -4 12.36 1.82 1
 12 3 -3 4.13 1.61 1
 12 3 -2 10.93 1.35 1
 12 3 -1 34.08 1.9 1
 12 3 0 8.83 1.29 1
 12 3 1 34.55 1.78 1
 12 3 2 12.22 1.63 1
 12 3 3 5.78 1.63 1
 12 3 4 7.79 1.44 1
 12 3 5 37.05 2.4 1
 12 3 6 6.38 1.73 1
 12 3 7 37.42 2.36 1
 12 3 8 92.76 4.06 1
 12 3 9 22.71 2.52 1
 12 3 10 34.11 1.99 1
 12 3 11 23.09 1.85 1
 12 3 12 38.73 3.18 1
 12 3 13 51.37 3.98 1
 12 3 14 35.04 3.83 1
 12 3 15 2.21 2.6 1
 12 3 16 0.75 2.83 1
 12 3 17 16.17 2.85 1
 12 4 -16 13.68 2.01 1
 12 4 -15 15.65 1.63 1
 12 4 -14 5.55 1.69 1
 12 4 -13 5.23 1.52 1
 12 4 -12 14.32 1.8 1
 12 4 -11 12.01 1.35 1
 12 4 -10 25.64 1.67 1
 12 4 -9 32.72 1.56 1
 12 4 -8 7.59 1.16 1
 12 4 -7 6.96 1.21 1
 12 4 -6 25.38 1.48 1
 12 4 -5 40.02 1.83 1
 12 4 -4 55.81 2.01 1
 12 4 -3 10.51 1.24 1
 12 4 -2 33.42 2.5 1
 12 4 -1 7.79 1.98 1
 12 4 0 35.89 3.04 1
 12 4 1 11.47 2.06 1
 12 4 2 32.39 2.04 1
 12 4 3 7.67 1.86 1
 12 4 4 56.41 4.24 1
 12 4 5 40.69 2.18 1
 12 4 6 23.27 1.86 1
 12 4 7 10.34 1.84 1
 12 4 8 6.84 1.46 1
 12 4 9 26.77 1.72 1
 12 4 10 24.84 2.01 1
 12 4 11 14.56 1.72 1
 12 4 12 15.33 2.05 1
 12 4 13 1.7 1.91 1
 12 4 14 2.77 1.92 1
 12 4 15 15.14 2.41 1
 12 4 16 13.61 2.78 1
 12 5 -15 5.12 1.89 1
 12 5 -14 7.51 1.4 1
 12 5 -13 0.68 1.4 1
 12 5 -12 5.53 1.36 1
 12 5 -11 13.23 1.41 1
 12 5 -10 6.89 1.57 1
 12 5 -9 1.24 1.24 1
 12 5 -8 11.38 1.31 1
 12 5 -7 18.67 1.43 1
 12 5 -6 62.93 2.21 1
 12 5 -5 7.67 1.18 1
 12 5 -4 10.3 1.16 1
 12 5 -3 11.09 1.2 1
 12 5 -2 42.9 2.43 1
 12 5 -1 7.96 1.44 1
 12 5 0 37.07 2.02 1
 12 5 1 6.89 1.36 1
 12 5 2 40.02 4.49 1
 12 5 3 16.35 2.15 1
 12 5 4 9.01 1.35 1
 12 5 5 8.71 1.52 1
 12 5 6 55.04 3.34 1
 12 5 7 16.97 1.64 1
 12 5 8 9.77 1.62 1
 12 5 9 4.45 1.61 1
 12 5 10 10.11 2.23 1
 12 5 11 8.89 2.34 1
 12 5 12 5.55 1.84 1
 12 5 13 1.99 2.8 1
 12 5 14 5.32 2.36 1
 12 5 15 4.15 2.6 1
 12 6 -14 2.22 1.44 1
 12 6 -13 1.3 1.4 1
 12 6 -12 8.43 1.87 1
 12 6 -11 1.35 1.31 1
 12 6 -10 15.85 1.58 1
 12 6 -9 5.1 1.34 1
 12 6 -8 6.1 1.69 1
 12 6 -7 6.43 1.58 1
 12 6 -6 16.99 1.4 1
 12 6 -5 5.4 1.59 1
 12 6 -4 28.82 1.51 1
 12 6 -3 7.21 1.14 1
 12 6 -2 24.79 1.42 1
 12 6 -1 13.11 1.21 1
 12 6 0 3.33 2.42 1
 12 6 1 15.53 2.55 1
 12 6 2 26.63 2.15 1
 12 6 3 5.51 2.25 1
 12 6 4 30.05 2.06 1
 12 6 5 5.68 1.71 1
 12 6 6 18.39 1.79 1
 12 6 7 6.17 1.98 1
 12 6 8 8.17 2.05 1
 12 6 9 8.62 2.25 1
 12 6 10 16.91 2.37 1
 12 6 11 6.82 1.97 1
 12 6 12 6.24 2.28 1
 12 6 13 3.77 2.01 1
 12 6 14 -0.93 5.76 1
 12 7 -11 2.8 1.58 1
 12 7 -10 2.18 1.51 1
 12 7 -9 0.1 2.05 1
 12 7 -8 30.82 1.68 1
 12 7 -7 4.87 1.36 1
 12 7 -6 5.33 1.44 1
 12 7 -5 3.93 1.38 1
 12 7 -4 18.98 1.52 1
 12 7 -3 9.33 1.35 1
 12 7 -2 8.12 1.3 1
 12 7 -1 2.55 1.47 1
 12 7 0 15.2 1.59 1
 12 7 1 2.15 1.92 1
 12 7 2 7.29 2.22 1
 12 7 3 9.8 2.25 1
 12 7 4 18.43 2.36 1
 12 7 5 9.9 2.08 1
 12 7 6 8.92 2.66 1
 12 7 7 5.13 2.72 1
 12 7 8 23.86 2.17 1
 12 7 9 4.93 2.27 1
 12 7 10 3.4 2.11 1
 12 7 11 4.01 2.01 1
 12 8 -8 1.3 1.43 1
 12 8 -7 5.07 1.44 1
 12 8 -6 12.52 1.53 1
 12 8 -5 2.86 1.45 1
 12 8 -4 6.62 1.83 1
 12 8 -3 13.16 1.53 1
 12 8 -2 3.33 2.02 1
 12 8 -1 3.41 1.93 1
 12 8 0 11.61 1.74 1
 12 8 1 5.72 1.69 1
 12 8 2 11.73 4.17 1
 12 8 3 14.15 3.85 1
 12 8 4 5.71 2.89 1
 12 8 5 2.61 2.52 1
 12 8 6 9.91 2.23 1
 12 8 7 4.65 2.13 1
 12 8 8 -1.2 5.63 1
 12 9 -2 10.96 2.74 1
 12 9 -1 23.43 2.27 1
 12 9 0 2.16 2.02 1
 12 9 1 19.64 3.54 1
 12 9 2 6.75 3.39 1
 13 0 1 4.63 1.76 1
 13 0 2 40.22 2.06 1
 13 0 3 1.98 1.52 1
 13 0 4 95.65 4.52 1
 13 0 5 29.58 2.02 1
 13 0 6 2.91 2.73 1
 13 0 7 0.7 2.06 1
 13 0 8 39.06 3.32 1
 13 0 9 95.14 4.13 1
 13 0 10 4.36 1.99 1
 13 0 11 8.11 1.75 1
 13 0 12 3.81 1.9 1
 13 0 13 18.31 2.05 1
 13 0 14 2.18 2.05 1
 13 0 15 5.76 2.17 1
 13 1 -15 5.12 1.83 1
 13 1 -14 4.42 1.66 1
 13 1 -13 18.57 1.95 1
 13 1 -12 6.63 1.62 1
 13 1 -11 12.6 1.49 1
 13 1 -10 14.19 1.82 1
 13 1 -9 10.72 2.04 1
 13 1 -8 7.26 2.01 1
 13 1 -7 17.56 2.54 1
 13 1 -6 63.85 4.83 1
 13 1 -5 8.87 1.9 1
 13 1 -4 24.67 2.26 1
 13 1 -3 19.06 1.77 1
 13 1 -2 47.94 2.43 1
 13 1 -1 18.84 1.68 1
 13 1 0 106.29 3.89 1
 13 1 1 23.93 2.31 1
 13 1 2 45.17 2.43 1
 13 1 3 18.16 1.88 1
 13 1 4 27.72 1.8 1
 13 1 5 9.62 1.95 1
 13 1 6 61.66 3.81 1
 13 1 7 18.83 1.78 1
 13 1 8 5.01 1.95 1
 13 1 9 6.32 2.38 1
 13 1 10 9.57 4.35 1
 13 1 11 13.72 3.95 1
 13 1 12 6.96 2.51 1
 13 1 13 15.34 3.2 1
 13 1 14 5.57 2.7 1
 13 1 15 5 2.47 1
 13 2 -14 4.67 2.18 1
 13 2 -13 12.21 1.72 1
 13 2 -12 8.21 1.89 1
 13 2 -11 18.14 1.63 1
 13 2 -10 7.94 1.31 1
 13 2 -9 13.58 1.32 1
 13 2 -8 19.04 2.26 1
 13 2 -7 9.7 3.46 1
 13 2 -6 13.59 1.87 1
 13 2 -5 12.76 2.8 1
 13 2 -4 39.28 2.46 1
 13 2 -3 32.36 3.61 1
 13 2 -2 129.27 5.1 1
 13 2 -1 9.38 1.67 1
 13 2 0 28.22 1.98 1
 13 2 1 9.22 1.66 1
 13 2 2 127.15 5.47 1
 13 2 3 30.8 3.17 1
 13 2 4 37.56 1.96 1
 13 2 5 12.22 1.71 1
 13 2 6 12.02 1.54 1
 13 2 7 13.17 1.67 1
 13 2 8 12.95 3.15 1
 13 2 9 9.42 4.54 1
 13 2 10 9.09 3.39 1
 13 2 11 16.68 3 1
 13 2 12 4.28 2.95 1
 13 2 13 12.25 2.82 1
 13 2 14 2.5 9.69 1
 13 3 -14 10.8 1.88 1
 13 3 -13 8.85 2.32 1
 13 3 -12 6.61 1.76 1
 13 3 -11 9.88 1.62 1
 13 3 -10 17.76 1.75 1
 13 3 -9 7.92 1.55 1
 13 3 -8 2.73 1.8 1
 13 3 -7 33.93 1.78 1
 13 3 -6 38.97 2.22 1
 13 3 -5 1.85 2.89 1
 13 3 -4 44.21 2.97 1
 13 3 -3 36.44 3.42 1
 13 3 -2 9.2 1.93 1
 13 3 -1 1.07 2.3 1
 13 3 0 106.08 4.38 1
 13 3 1 4.46 2.02 1
 13 3 2 7.03 2.73 1
 13 3 3 41.12 2.45 1
 13 3 4 42.01 2.21 1
 13 3 5 1.1 1.55 1
 13 3 6 32.43 2.91 1
 13 3 7 35.16 3.73 1
 13 3 8 1.41 2.34 1
 13 3 9 10.8 2.52 1
 13 3 10 14.64 3.15 1
 13 3 11 12.03 2.62 1
 13 3 12 9.97 2.58 1
 13 3 13 7.47 4.29 1
 13 3 14 8.24 5.24 1
 13 4 -13 12.75 2.22 1
 13 4 -12 2.76 1.77 1
 13 4 -11 27.33 2.02 1
 13 4 -10 22.85 1.77 1
 13 4 -9 9.17 1.64 1
 13 4 -8 45.81 2.87 1
 13 4 -7 22.62 2.16 1
 13 4 -6 5.55 1.42 1
 13 4 -5 40.09 1.92 1
 13 4 -4 41.65 2.71 1
 13 4 -3 23.54 2.5 1
 13 4 -2 12.7 3.38 1
 13 4 -1 22.64 2.44 1
 13 4 0 5.85 1.83 1
 13 4 1 24.45 3.6 1
 13 4 2 14.06 2.5 1
 13 4 3 22.41 2.18 1
 13 4 4 35.26 3.06 1
 13 4 5 41.21 3.21 1
 13 4 6 2.49 2.16 1
 13 4 7 22 2.43 1
 13 4 8 45.23 3.85 1
 13 4 9 10.81 2.3 1
 13 4 10 20.39 3.53 1
 13 4 11 22.66 4.06 1
 13 4 12 2.26 2.57 1
 13 4 13 8.39 5.72 1
 13 5 -11 1.93 1.61 1
 13 5 -10 11.7 1.64 1
 13 5 -9 51.15 2.38 1
 13 5 -8 15.83 1.6 1
 13 5 -7 18.26 1.82 1
 13 5 -6 34.42 2.37 1
 13 5 -5 11.94 1.66 1
 13 5 -4 2.44 1.34 1
 13 5 -3 11.6 2.13 1
 13 5 -2 18.15 1.86 1
 13 5 -1 0.39 1.68 1
 13 5 0 7.9 2.05 1
 13 5 1 2.96 1.97 1
 13 5 2 14.51 2.2 1
 13 5 3 13.32 3.45 1
 13 5 4 3.66 3.32 1
 13 5 5 9.84 2.87 1
 13 5 6 33.05 3.48 1
 13 5 7 19.71 2.8 1
 13 5 8 12.7 2.97 1
 13 5 9 52.5 3.8 1
 13 5 10 12.52 3.93 1
 13 5 11 -0.42 5.66 1
 13 6 -9 3.11 1.55 1
 13 6 -8 13.63 1.69 1
 13 6 -7 20.86 1.75 1
 13 6 -6 8.06 1.73 1
 13 6 -5 18.45 2.14 1
 13 6 -4 13.55 1.66 1
 13 6 -3 19.34 1.96 1
 13 6 -2 9.86 1.5 1
 13 6 -1 35.58 2.75 1
 13 6 0 2.38 3.16 1
 13 6 1 39.84 3.3 1
 13 6 2 2.83 5.25 1
 13 6 3 16.24 3.43 1
 13 6 4 15.14 2.99 1
 13 6 5 19.03 4.74 1
 13 6 6 8.74 4.16 1
 13 6 7 11.89 3.21 1
 13 6 8 10.87 2.89 1
 13 6 9 1.98 2.54 1
 13 7 -5 1.72 1.93 1
 13 7 -4 11.76 1.81 1
 13 7 -3 22.32 1.84 1
 13 7 -2 4.97 1.75 1
 13 7 -1 18.79 1.68 1
 13 7 0 21.04 2.81 1
 13 7 1 19.84 3.62 1
 13 7 2 9.65 3.45 1
 13 7 3 21.71 3.6 1
 13 7 4 8.06 3.08 1
 13 7 5 1.75 2.87 1
 14 0 0 45.43 4.28 1
 14 0 1 8.09 2.85 1
 14 0 2 6.38 2.06 1
 14 0 3 21.45 2.53 1
 14 0 4 20.98 2.11 1
 14 0 5 15.36 2.1 1
 14 0 6 5.72 2.12 1
 14 0 7 4.47 1.97 1
 14 0 8 11.58 2.11 1
 14 0 9 4.01 1.98 1
 14 0 10 3.61 2.08 1
 14 1 -10 15.59 2.39 1
 14 1 -9 10.21 2.21 1
 14 1 -8 5.66 2.72 1
 14 1 -7 36.7 3.58 1
 14 1 -6 21.77 3.08 1
 14 1 -5 7.81 3.36 1
 14 1 -4 16 1.92 1
 14 1 -3 17.81 1.93 1
 14 1 -2 29.67 2.27 1
 14 1 -1 22.61 2.24 1
 14 1 0 13.83 2.24 1
 14 1 1 24.67 2.54 1
 14 1 2 23.54 2.37 1
 14 1 3 13.22 2.89 1
 14 1 4 13.69 3.87 1
 14 1 5 10.92 2.74 1
 14 1 6 23.77 2.05 1
 14 1 7 33.22 3.8 1
 14 1 8 2.89 2.12 1
 14 1 9 11.48 2.36 1
 14 1 10 14.01 2.59 1
 14 2 -9 42.53 3.2 1
 14 2 -8 2.4 3.02 1
 14 2 -7 1.19 2.31 1
 14 2 -6 9.3 3.24 1
 14 2 -5 45.71 2.68 1
 14 2 -4 16.08 2.22 1
 14 2 -3 20.63 2.26 1
 14 2 -2 1.98 1.99 1
 14 2 -1 19.65 2.21 1
 14 2 0 0.11 1.92 1
 14 2 1 17.1 3.07 1
 14 2 2 3.87 2.07 1
 14 2 3 19.41 2.49 1
 14 2 4 12.51 2.63 1
 14 2 5 47.89 5.63 1
 14 2 6 2.67 2.67 1
 14 2 7 5.86 3.2 1
 14 2 8 2.57 1.99 1
 14 2 9 41.27 3.02 1
 14 3 -8 26.63 6.23 1
 14 3 -7 34.08 3.01 1
 14 3 -6 12.88 2.68 1
 14 3 -5 8.89 2.45 1
 14 3 -4 18.63 2.4 1
 14 3 -3 16.62 2.17 1
 14 3 -2 10.53 2 1
 14 3 -1 11.56 2.78 1
 14 3 0 68.04 4.09 1
 14 3 1 10.24 2.35 1
 14 3 2 8.28 1.99 1
 14 3 3 21.01 2.11 1
 14 3 4 19.83 2.13 1
 14 3 5 9.14 2.36 1
 14 3 6 8.43 2.41 1
 14 3 7 34.19 2.39 1
 14 3 8 20.7 3.91 1
 14 4 -6 15.33 5.95 1
 14 4 -5 7.17 3.65 1
 14 4 -4 23.94 2.82 1
 14 4 -3 7.69 2.19 1
 14 4 -2 60.56 4.9 1
 14 4 -1 2.3 3.27 1
 14 4 0 22.52 3.91 1
 14 4 1 2.77 1.86 1
 14 4 2 50.54 5.24 1
 14 4 3 5.53 2.4 1
 14 4 4 21.69 2.24 1
 14 4 5 8 2.04 1
 14 4 6 8.75 5.26 1
 14 5 -3 5.79 5 1
 14 5 -2 24.18 6.54 1
 14 5 -1 2.41 2.27 1
 14 5 0 15.28 2.38 1
 14 5 1 6.91 2.31 1
 14 5 2 24.03 2.16 1
 14 5 3 -1 5.47 1

_iucr_refine_fcf_details
;
data_lalanine8_200k
_computing_structure_refinement   'olex2.refine 1.5 (Bourhis et al., 2015)'
_shelx_refln_list_code            4
loop_
  _space_group_symop_id
  _space_group_symop_operation_xyz
  1  x,y,z
  2  x+1/2,-y+1/2,-z
  3  -x,y+1/2,-z+1/2
  4  -x+1/2,-y,z+1/2

_space_group_crystal_system       orthorhombic
_space_group_IT_number            19
_space_group_name_H-M_alt         'P 21 21 21'
_space_group_name_Hall            ' P 2ac 2ab'
_symmetry_space_group_name_H-M    'P 21 21 21'
_symmetry_space_group_name_Hall   ' P 2ac 2ab'
_symmetry_Int_Tables_number       19
_cell_length_a                    5.8030(3)
_cell_length_b                    6.0038(3)
_cell_length_c                    12.3330(5)
_cell_angle_alpha                 90
_cell_angle_beta                  90
_cell_angle_gamma                 90
_cell_volume                      429.69(3)
loop_
  _refln_index_h
  _refln_index_k
  _refln_index_l
  _refln_F_squared_calc
  _refln_F_squared_meas
  _refln_F_squared_sigma
  _refln_F_squared_weight
  _refln_observed_status
-14 -5 -3 0.036 0.312 0.270 13.884 o
-14 -5 -2 1.232 1.303 0.353 8.115 o
-14 -5 -1 0.090 0.130 0.122 67.359 o
-14 -4 -6 0.553 0.826 0.321 9.804 o
-14 -4 -5 0.266 0.386 0.197 26.053 o
-14 -4 -4 1.157 1.290 0.152 43.647 o
-14 -4 -3 0.155 0.415 0.118 72.370 o
-14 -4 -2 2.809 3.264 0.264 14.456 o
-14 -4 -1 0.025 0.124 0.176 32.460 o
-14 -3 -8 1.229 1.435 0.336 8.943 o
-14 -3 -7 1.725 1.837 0.162 38.310 o
-14 -3 -6 0.428 0.694 0.144 48.326 o
-14 -3 -5 0.387 0.479 0.132 57.825 o
-14 -3 -4 1.035 1.004 0.129 60.260 o
-14 -3 -3 0.852 0.896 0.117 73.710 o
-14 -3 -2 0.580 0.568 0.108 86.774 o
-14 -3 -1 0.385 0.623 0.150 44.912 o
-14 -2 -9 2.434 2.293 0.172 33.896 o
-14 -2 -8 0.086 0.129 0.163 38.057 o
-14 -2 -7 0.200 0.064 0.125 65.047 o
-14 -2 -6 0.245 0.501 0.175 33.064 o
-14 -2 -5 2.739 2.464 0.144 48.326 o
-14 -2 -4 0.634 0.867 0.120 70.428 o
-14 -2 -3 0.889 1.112 0.122 67.957 o
-14 -2 -2 0.020 0.107 0.107 87.648 o
-14 -2 -1 0.849 1.059 0.119 71.066 o
-14 -1 -10 0.725 0.840 0.129 60.765 o
-14 -1 -9 0.507 0.550 0.119 71.066 o
-14 -1 -8 0.028 0.305 0.147 46.915 o
-14 -1 -7 1.986 1.978 0.193 27.082 o
-14 -1 -6 1.329 1.174 0.166 36.589 o
-14 -1 -5 0.344 0.421 0.181 30.745 o
-14 -1 -4 0.745 0.862 0.103 94.156 o
-14 -1 -3 0.783 0.960 0.104 93.182 o
-14 -1 -2 1.221 1.599 0.122 67.359 o
-14 -1 -1 1.263 1.219 0.121 69.175 o
-13 -7 -5 0.088 0.093 0.104 93.182 o
-13 -7 -4 0.523 0.634 0.098 105.948 o
-13 -7 -3 1.266 1.203 0.099 102.521 o
-13 -7 -2 0.188 0.268 0.094 113.337 o
-13 -7 -1 1.159 1.013 0.091 122.979 o
-13 -6 -9 0.181 0.168 0.084 144.473 o
-13 -6 -8 0.825 0.735 0.091 121.528 o
-13 -6 -7 0.946 1.124 0.094 113.337 o
-13 -6 -6 0.330 0.434 0.093 115.973 o
-13 -6 -5 0.972 0.995 0.115 75.792 o
-13 -6 -4 0.743 0.730 0.089 125.960 o
-13 -6 -3 0.817 1.043 0.106 90.352 o
-13 -6 -2 0.515 0.532 0.081 154.265 o
-13 -6 -1 1.947 1.918 0.148 45.897 o
-13 -5 -11 0.014 0.104 0.087 133.905 o
-13 -5 -10 0.485 0.631 0.088 129.051 o
-13 -5 -9 3.009 2.757 0.128 61.277 o
-13 -5 -8 0.825 0.853 0.086 135.584 o
-13 -5 -7 1.022 0.984 0.098 104.787 o
-13 -5 -6 1.883 1.855 0.128 61.795 o
-13 -5 -5 0.614 0.644 0.089 125.960 o
-13 -5 -4 0.024 0.132 0.072 193.303 o
-13 -5 -3 0.628 0.625 0.115 76.505 o
-13 -5 -2 0.946 0.978 0.100 100.328 o
-13 -5 -1 0.020 0.021 0.091 122.979 o
-13 -4 -13 0.643 0.687 0.120 70.428 o
-13 -4 -12 0.213 0.149 0.095 110.790 o
-13 -4 -11 1.447 1.473 0.109 85.064 o
-13 -4 -10 1.136 1.232 0.095 110.790 o
-13 -4 -9 0.389 0.494 0.088 129.051 o
-13 -4 -8 2.431 2.469 0.155 42.139 o
-13 -4 -7 1.198 1.219 0.116 74.394 o
-13 -4 -6 0.207 0.299 0.077 172.136 o
-13 -4 -5 2.407 2.161 0.103 94.156 o
-13 -4 -4 2.162 2.245 0.146 47.262 o
-13 -4 -3 1.151 1.269 0.135 55.535 o
-13 -4 -2 0.821 0.685 0.182 30.382 o
-13 -4 -1 1.152 1.220 0.132 58.300 o
-13 -3 -14 0.513 0.582 0.101 98.205 o
-13 -3 -13 0.514 0.477 0.125 64.487 o
-13 -3 -12 0.308 0.356 0.095 112.053 o
-13 -3 -11 0.489 0.533 0.087 132.257 o
-13 -3 -10 0.897 0.957 0.094 113.337 o
-13 -3 -9 0.425 0.427 0.084 144.473 o
-13 -3 -8 0.047 0.147 0.097 107.128 o
-13 -3 -7 2.005 1.829 0.096 109.549 o
-13 -3 -6 1.854 2.101 0.120 70.428 o
-13 -3 -5 0.040 0.100 0.156 41.558 o
-13 -3 -4 2.291 2.383 0.160 39.349 o
-13 -3 -3 2.153 1.964 0.184 29.675 o
-13 -3 -2 0.476 0.496 0.104 93.182 o
-13 -3 -1 0.153 0.058 0.124 65.614 o
-13 -2 -14 0.083 0.252 0.118 73.036 o
-13 -2 -13 0.613 0.658 0.093 117.325 o
-13 -2 -12 0.262 0.443 0.102 97.168 o
-13 -2 -11 0.972 0.978 0.088 130.639 o
-13 -2 -10 0.303 0.428 0.071 202.258 o
-13 -2 -9 0.438 0.732 0.071 199.205 o
-13 -2 -8 0.899 1.026 0.122 67.957 o
-13 -2 -7 0.493 0.523 0.187 28.993 o
-13 -2 -6 0.533 0.733 0.101 99.258 o
-13 -2 -5 0.584 0.688 0.151 44.272 o
-13 -2 -4 2.138 2.117 0.133 57.356 o
-13 -2 -3 1.758 1.744 0.195 26.634 o
-13 -2 -2 6.939 6.968 0.275 13.345 o
-13 -2 -1 0.449 0.506 0.090 124.456 o
-13 -1 -15 0.186 0.276 0.099 103.645 o
-13 -1 -14 0.100 0.238 0.089 125.960 o
-13 -1 -13 0.852 1.001 0.105 91.281 o
-13 -1 -12 0.161 0.357 0.087 132.257 o
-13 -1 -11 0.681 0.679 0.080 156.342 o
-13 -1 -10 0.430 0.765 0.098 104.787 o
-13 -1 -9 0.434 0.578 0.110 83.404 o
-13 -1 -8 0.323 0.391 0.108 85.912 o
-13 -1 -7 1.019 0.947 0.137 53.800 o
-13 -1 -6 3.508 3.442 0.260 14.878 o
-13 -1 -5 0.449 0.478 0.102 96.148 o
-13 -1 -4 1.405 1.330 0.122 67.957 o
-13 -1 -3 0.825 1.027 0.095 110.790 o
-13 -1 -2 2.503 2.584 0.131 58.781 o
-13 -1 -1 1.152 1.016 0.091 122.979 o
-12 -9 -2 0.635 0.591 0.148 46.233 o
-12 -9 -1 1.166 1.263 0.122 67.359 o
-12 -8 -8 0.050 0.070 0.077 169.737 o
-12 -8 -7 0.137 0.273 0.078 167.388 o
-12 -8 -6 0.584 0.675 0.082 148.274 o
-12 -8 -5 0.003 0.154 0.078 165.087 o
-12 -8 -4 0.227 0.357 0.099 103.645 o
-12 -8 -3 0.639 0.709 0.082 148.274 o
-12 -8 -2 0.024 0.180 0.109 85.064 o
-12 -8 -1 0.229 0.184 0.104 93.182 o
-12 -7 -11 0.005 0.151 0.085 139.038 o
-12 -7 -10 0.217 0.118 0.081 152.228 o
-12 -7 -9 0.005 0.005 0.111 82.593 o
-12 -7 -8 1.598 1.661 0.091 122.979 o
-12 -7 -7 0.243 0.263 0.073 187.660 o
-12 -7 -6 0.128 0.287 0.078 167.388 o
-12 -7 -5 0.228 0.212 0.074 182.260 o
-12 -7 -4 0.855 1.023 0.082 150.232 o
-12 -7 -3 0.336 0.503 0.073 190.450 o
-12 -7 -2 0.232 0.438 0.070 205.382 o
-12 -7 -1 0.044 0.137 0.079 160.625 o
-12 -6 -14 0.101 0.120 0.078 167.388 o
-12 -6 -13 0.041 0.070 0.075 177.089 o
-12 -6 -12 0.270 0.454 0.101 99.258 o
-12 -6 -11 0.038 0.073 0.071 202.258 o
-12 -6 -10 0.836 0.854 0.085 139.038 o
-12 -6 -9 0.402 0.275 0.072 193.303 o
-12 -6 -8 0.335 0.329 0.091 121.528 o
-12 -6 -7 0.356 0.347 0.085 139.038 o
-12 -6 -6 0.869 0.916 0.075 177.089 o
-12 -6 -5 0.196 0.291 0.086 137.295 o
-12 -6 -4 1.607 1.554 0.081 152.228 o
-12 -6 -3 0.340 0.389 0.061 267.078 o
-12 -6 -2 1.224 1.336 0.077 172.136 o
-12 -6 -1 0.684 0.707 0.065 237.071 o
-12 -5 -15 0.045 0.276 0.102 97.168 o
-12 -5 -14 0.373 0.405 0.075 177.089 o
-12 -5 -13 0.075 0.037 0.075 177.089 o
-12 -5 -12 0.089 0.298 0.073 187.660 o
-12 -5 -11 0.610 0.713 0.076 174.586 o
-12 -5 -10 0.389 0.371 0.085 140.815 o
-12 -5 -9 0.112 0.067 0.067 225.738 o
-12 -5 -8 0.488 0.613 0.071 202.258 o
-12 -5 -7 0.849 1.006 0.077 169.737 o
-12 -5 -6 3.335 3.392 0.119 71.066 o
-12 -5 -5 0.450 0.413 0.064 249.278 o
-12 -5 -4 0.438 0.555 0.063 257.948 o
-12 -5 -3 0.597 0.598 0.065 241.038 o
-12 -5 -2 2.421 2.313 0.131 58.781 o
-12 -5 -1 0.382 0.429 0.078 167.388 o
-12 -4 -16 0.588 0.737 0.108 85.912 o
-12 -4 -15 0.820 0.844 0.088 130.639 o
-12 -4 -14 0.094 0.299 0.091 121.528 o
-12 -4 -13 0.179 0.282 0.082 150.232 o
-12 -4 -12 0.863 0.772 0.097 107.128 o
-12 -4 -11 0.677 0.647 0.073 190.450 o
-12 -4 -10 1.412 1.382 0.090 124.456 o
-12 -4 -9 1.723 1.764 0.084 142.626 o
-12 -4 -8 0.350 0.409 0.063 257.948 o
-12 -4 -7 0.448 0.375 0.065 237.071 o
-12 -4 -6 1.278 1.368 0.080 158.462 o
-12 -4 -5 2.183 2.157 0.099 103.645 o
-12 -4 -4 3.081 3.008 0.108 85.912 o
-12 -4 -3 0.551 0.567 0.067 225.738 o
-12 -4 -2 1.708 1.802 0.135 55.535 o
-12 -4 -1 0.483 0.420 0.107 88.536 o
-12 -3 -17 0.805 0.785 0.081 154.265 o
-12 -3 -16 0.047 0.134 0.083 146.355 o
-12 -3 -15 0.029 0.060 0.071 202.258 o
-12 -3 -14 1.903 2.060 0.098 105.948 o
-12 -3 -13 2.697 2.567 0.125 65.047 o
-12 -3 -12 2.193 2.194 0.100 101.416 o
-12 -3 -11 1.218 1.201 0.075 177.089 o
-12 -3 -10 1.890 1.861 0.085 140.815 o
-12 -3 -9 1.116 1.234 0.071 199.205 o
-12 -3 -8 4.753 4.832 0.160 39.615 o
-12 -3 -7 2.085 2.139 0.088 129.051 o
-12 -3 -6 0.351 0.564 0.059 286.856 o
-12 -3 -5 1.947 1.996 0.086 135.584 o
-12 -3 -4 0.395 0.666 0.098 104.787 o
-12 -3 -3 0.228 0.223 0.087 133.905 o
-12 -3 -2 0.630 0.589 0.073 190.450 o
-12 -3 -1 1.836 1.837 0.102 96.148 o
-12 -2 -18 0.556 0.602 0.100 101.416 o
-12 -2 -17 0.125 0.093 0.096 109.549 o
-12 -2 -16 2.313 2.205 0.105 92.224 o
-12 -2 -15 0.702 0.746 0.077 169.737 o
-12 -2 -14 0.470 0.570 0.071 202.258 o
-12 -2 -13 0.747 0.831 0.075 179.647 o
-12 -2 -12 3.812 3.696 0.132 58.300 o
-12 -2 -11 0.855 0.915 0.066 229.424 o
-12 -2 -10 5.356 5.221 0.169 35.204 o
-12 -2 -9 3.474 3.238 0.116 74.394 o
-12 -2 -8 1.759 1.713 0.080 158.462 o
-12 -2 -7 1.251 1.158 0.079 160.625 o
-12 -2 -6 5.817 5.927 0.232 18.772 o
-12 -2 -5 0.529 0.586 0.086 137.295 o
-12 -2 -4 1.064 1.144 0.100 101.416 o
-12 -2 -3 10.219 9.671 0.388 6.714 o
-12 -2 -2 2.050 2.136 0.122 67.957 o
-12 -2 -1 5.064 5.022 0.192 27.387 o
-12 -1 -18 0.928 1.073 0.170 34.760 o
-12 -1 -17 0.114 0.230 0.088 129.051 o
-12 -1 -16 0.038 0.201 0.089 125.960 o
-12 -1 -15 0.306 0.309 0.077 169.737 o
-12 -1 -14 2.133 2.102 0.107 88.536 o
-12 -1 -13 0.181 0.146 0.126 63.935 o
-12 -1 -12 0.623 0.573 0.070 205.382 o
-12 -1 -11 3.060 2.821 0.121 68.562 o
-12 -1 -10 0.754 0.804 0.070 208.578 o
-12 -1 -9 3.016 2.998 0.129 60.765 o
-12 -1 -8 2.607 2.166 0.192 27.387 o
-12 -1 -7 4.965 4.610 0.268 14.052 o
-12 -1 -6 0.110 0.164 0.063 257.948 o
-12 -1 -5 19.000 19.113 0.720 1.945 o
-12 -1 -4 5.834 5.859 0.232 18.685 o
-12 -1 -3 0.688 0.791 0.065 241.038 o
-12 -1 -2 1.477 1.599 0.148 46.233 o
-12 -1 -1 20.706 21.304 0.712 1.989 o
-11 -10 -5 0.295 0.358 0.099 103.645 o
-11 -10 -4 0.075 0.246 0.109 84.228 o
-11 -10 -3 0.167 0.292 0.098 104.787 o
-11 -10 -2 0.107 0.143 0.096 109.549 o
-11 -10 -1 0.022 0.021 0.126 63.935 o
-11 -9 -10 0.412 0.425 0.087 132.257 o
-11 -9 -9 0.204 0.257 0.084 144.473 o
-11 -9 -8 0.531 0.576 0.084 144.473 o
-11 -9 -7 0.287 0.363 0.090 124.456 o
-11 -9 -6 0.263 0.240 0.130 59.761 o
-11 -9 -5 0.245 0.492 0.094 113.337 o
-11 -9 -4 0.144 0.279 0.080 158.462 o
-11 -9 -3 0.159 0.325 0.079 162.833 o
-11 -9 -2 0.194 0.238 0.079 162.833 o
-11 -9 -1 0.122 0.224 0.076 174.586 o
-11 -8 -13 0.453 0.457 0.084 142.626 o
-11 -8 -12 1.627 1.589 0.111 82.593 o
-11 -8 -11 0.094 0.200 0.086 137.295 o
-11 -8 -10 0.560 0.529 0.077 169.737 o
-11 -8 -9 0.347 0.318 0.076 174.586 o
-11 -8 -8 0.451 0.501 0.081 152.228 o
-11 -8 -7 0.134 0.082 0.088 129.051 o
-11 -8 -6 0.592 0.700 0.079 162.833 o
-11 -8 -5 1.613 1.501 0.093 117.325 o
-11 -8 -4 0.115 0.316 0.088 130.639 o
-11 -8 -3 0.088 0.100 0.076 174.586 o
-11 -8 -2 0.110 0.213 0.079 162.833 o
-11 -8 -1 1.609 1.821 0.104 93.182 o
-11 -7 -15 0.511 0.433 0.079 160.625 o
-11 -7 -14 1.750 1.721 0.139 52.145 o
-11 -7 -13 0.421 0.565 0.082 148.274 o
-11 -7 -12 0.351 0.342 0.078 165.087 o
-11 -7 -11 1.366 1.323 0.106 90.352 o
-11 -7 -10 0.519 0.646 0.079 160.625 o
-11 -7 -9 0.306 0.521 0.115 76.505 o
-11 -7 -8 0.637 0.795 0.116 75.088 o
-11 -7 -7 3.812 3.580 0.202 24.814 o
-11 -7 -6 0.486 0.551 0.072 193.303 o
-11 -7 -5 0.053 0.060 0.063 253.558 o
-11 -7 -4 0.075 0.248 0.065 237.071 o
-11 -7 -3 5.271 5.009 0.184 29.675 o
-11 -7 -2 0.800 0.748 0.068 215.199 o
-11 -7 -1 1.277 1.522 0.086 137.295 o
-11 -6 -17 0.229 0.376 0.084 144.473 o
-11 -6 -16 0.814 0.783 0.111 81.793 o
-11 -6 -15 0.742 0.678 0.084 144.473 o
-11 -6 -14 0.855 0.934 0.081 152.228 o
-11 -6 -13 0.431 0.548 0.081 152.228 o
-11 -6 -12 0.702 0.701 0.110 83.404 o
-11 -6 -11 0.629 0.609 0.106 89.437 o
-11 -6 -10 4.404 4.330 0.165 36.828 o
-11 -6 -9 1.911 1.966 0.095 110.790 o
-11 -6 -8 3.001 2.958 0.141 50.565 o
-11 -6 -7 0.423 0.463 0.064 249.278 o
-11 -6 -6 2.864 2.579 0.113 79.461 o
-11 -6 -5 4.664 4.580 0.175 33.064 o
-11 -6 -4 2.454 2.361 0.111 82.593 o
-11 -6 -3 1.378 1.370 0.070 208.578 o
-11 -6 -2 0.242 0.270 0.055 333.617 o
-11 -6 -1 5.497 5.225 0.174 33.476 o
-11 -5 -18 0.269 0.366 0.080 156.342 o
-11 -5 -17 1.007 0.953 0.091 121.528 o
-11 -5 -16 1.104 1.212 0.104 93.182 o
-11 -5 -15 0.144 0.197 0.074 182.260 o
-11 -5 -14 0.050 0.105 0.108 85.912 o
-11 -5 -13 0.817 0.839 0.110 83.404 o
-11 -5 -12 7.683 7.556 0.241 17.294 o
-11 -5 -11 0.088 0.001 0.074 182.260 o
-11 -5 -10 3.514 3.839 0.152 43.647 o
-11 -5 -9 1.272 1.237 0.081 154.265 o
-11 -5 -8 8.325 7.818 0.254 15.580 o
-11 -5 -7 0.418 0.540 0.067 222.141 o
-11 -5 -6 7.139 7.161 0.226 19.771 o
-11 -5 -5 0.435 0.610 0.061 267.078 o
-11 -5 -4 1.676 1.651 0.093 115.973 o
-11 -5 -3 3.013 3.057 0.108 85.912 o
-11 -5 -2 3.135 3.014 0.113 78.706 o
-11 -5 -1 5.714 5.672 0.204 24.292 o
-11 -4 -19 0.571 0.464 0.087 132.257 o
-11 -4 -18 0.697 0.796 0.087 132.257 o
-11 -4 -17 1.225 1.230 0.094 114.644 o
-11 -4 -16 0.823 0.653 0.129 60.260 o
-11 -4 -15 0.823 0.963 0.082 148.274 o
-11 -4 -14 4.993 4.613 0.169 35.204 o
-11 -4 -13 2.501 2.272 0.121 68.562 o
-11 -4 -12 0.781 0.792 0.067 222.141 o
-11 -4 -11 1.045 1.022 0.070 208.578 o
-11 -4 -10 4.767 4.811 0.153 43.339 o
-11 -4 -9 0.747 0.765 0.073 187.660 o
-11 -4 -8 4.566 4.601 0.209 23.056 o
-11 -4 -7 1.340 1.447 0.079 162.833 o
-11 -4 -6 0.385 0.444 0.073 187.660 o
-11 -4 -5 1.480 1.403 0.079 160.625 o
-11 -4 -4 8.502 8.312 0.245 16.840 o
-11 -4 -3 3.325 3.225 0.108 85.912 o
-11 -4 -2 0.984 1.128 0.068 218.629 o
-11 -4 -1 0.385 0.335 0.058 297.578 o
-11 -3 -20 0.065 0.031 0.084 144.473 o
-11 -3 -19 1.897 1.992 0.133 57.356 o
-11 -3 -18 0.966 1.255 0.115 75.792 o
-11 -3 -17 0.907 0.813 0.091 121.528 o
-11 -3 -16 1.393 1.329 0.100 101.416 o
-11 -3 -15 4.383 4.415 0.190 28.013 o
-11 -3 -14 2.305 2.260 0.097 107.128 o
-11 -3 -13 0.950 1.040 0.073 187.660 o
-11 -3 -12 1.482 1.545 0.102 96.148 o
-11 -3 -11 1.580 1.504 0.077 172.136 o
-11 -3 -10 1.865 1.769 0.091 122.979 o
-11 -3 -9 1.550 1.593 0.078 165.087 o
-11 -3 -8 1.302 1.283 0.069 211.850 o
-11 -3 -7 3.268 3.235 0.120 69.797 o
-11 -3 -6 2.808 2.815 0.105 91.281 o
-11 -3 -5 3.322 3.424 0.112 80.227 o
-11 -3 -4 4.398 4.512 0.140 51.743 o
-11 -3 -3 5.310 5.280 0.178 31.680 o
-11 -3 -2 3.498 3.351 0.201 25.082 o
-11 -3 -1 2.919 2.947 0.128 61.795 o
-11 -2 -20 0.294 0.528 0.088 129.051 o
-11 -2 -19 1.118 1.195 0.088 129.051 o
-11 -2 -18 1.241 1.228 0.100 101.416 o
-11 -2 -17 2.887 2.777 0.122 67.957 o
-11 -2 -16 0.623 0.728 0.078 165.087 o
-11 -2 -15 0.165 0.318 0.072 196.221 o
-11 -2 -14 0.839 0.845 0.080 158.462 o
-11 -2 -13 1.031 0.971 0.071 199.205 o
-11 -2 -12 1.989 1.961 0.089 127.491 o
-11 -2 -11 0.755 0.776 0.069 211.850 o
-11 -2 -10 0.938 0.981 0.064 249.278 o
-11 -2 -9 0.091 0.140 0.053 354.143 o
-11 -2 -8 2.077 2.113 0.084 142.626 o
-11 -2 -7 0.239 0.303 0.058 297.578 o
-11 -2 -6 4.592 4.399 0.142 50.181 o
-11 -2 -5 0.451 0.514 0.052 376.622 o
-11 -2 -4 0.738 0.798 0.075 179.647 o
-11 -2 -3 1.631 1.557 0.084 142.626 o
-11 -2 -2 1.788 1.948 0.085 139.038 o
-11 -2 -1 3.004 3.101 0.114 77.228 o
-11 -1 -21 0.740 0.578 0.160 39.615 o
-11 -1 -20 0.950 1.057 0.125 64.487 o
-11 -1 -19 0.869 1.099 0.095 112.053 o
-11 -1 -18 0.083 0.166 0.076 174.586 o
-11 -1 -17 0.162 0.217 0.072 196.221 o
-11 -1 -16 2.033 1.958 0.115 76.505 o
-11 -1 -15 1.005 0.901 0.072 196.221 o
-11 -1 -14 1.728 1.586 0.093 115.973 o
-11 -1 -13 2.311 2.286 0.107 87.648 o
-11 -1 -12 0.163 0.167 0.079 160.625 o
-11 -1 -11 0.373 0.444 0.062 262.454 o
-11 -1 -10 4.922 4.613 0.147 46.572 o
-11 -1 -9 3.223 3.094 0.103 95.144 o
-11 -1 -8 3.480 3.387 0.122 67.957 o
-11 -1 -7 1.232 1.151 0.060 276.702 o
-11 -1 -6 1.147 1.155 0.072 193.303 o
-11 -1 -5 1.090 1.245 0.077 169.737 o
-11 -1 -4 2.861 3.047 0.117 73.710 o
-11 -1 -3 3.275 3.211 0.122 67.359 o
-11 -1 -2 8.645 8.474 0.277 13.189 o
-11 -1 -1 2.405 2.370 0.109 85.064 o
-10 -11 -6 0.178 0.080 0.102 97.168 o
-10 -11 -5 0.262 0.310 0.111 82.593 o
-10 -11 -4 0.232 0.185 0.129 60.260 o
-10 -11 -3 0.123 0.081 0.092 120.102 o
-10 -11 -2 0.103 0.332 0.093 117.325 o
-10 -11 -1 0.125 0.052 0.091 121.528 o
-10 -10 -11 0.185 0.270 0.098 104.787 o
-10 -10 -10 0.318 0.193 0.080 158.462 o
-10 -10 -9 0.150 0.307 0.107 88.536 o
-10 -10 -8 0.621 0.710 0.124 65.614 o
-10 -10 -7 0.554 0.534 0.134 56.435 o
-10 -10 -6 0.010 0.156 0.141 50.565 o
-10 -10 -5 0.128 0.366 0.090 124.456 o
-10 -10 -4 0.817 0.826 0.095 110.790 o
-10 -10 -3 0.759 0.865 0.094 113.337 o
-10 -10 -2 0.325 0.399 0.090 124.456 o
-10 -10 -1 0.120 0.085 0.101 98.205 o
-10 -9 -14 0.113 0.326 0.094 113.337 o
-10 -9 -13 0.219 0.235 0.102 96.148 o
-10 -9 -12 1.102 0.937 0.098 104.787 o
-10 -9 -11 0.151 0.244 0.085 140.815 o
-10 -9 -10 0.909 0.919 0.122 67.957 o
-10 -9 -9 0.508 0.622 0.088 130.639 o
-10 -9 -8 0.904 0.923 0.096 108.328 o
-10 -9 -7 0.235 0.310 0.075 179.647 o
-10 -9 -6 1.273 1.261 0.115 75.792 o
-10 -9 -5 0.203 0.348 0.089 125.960 o
-10 -9 -4 0.110 0.282 0.091 121.528 o
-10 -9 -3 1.141 1.093 0.084 142.626 o
-10 -9 -2 0.271 0.379 0.088 130.639 o
-10 -9 -1 1.304 1.298 0.081 152.228 o
-10 -8 -16 0.514 0.507 0.089 127.491 o
-10 -8 -15 0.600 0.528 0.087 132.257 o
-10 -8 -14 0.603 0.583 0.078 165.087 o
-10 -8 -13 0.029 0.072 0.080 156.342 o
-10 -8 -12 0.481 0.675 0.092 120.102 o
-10 -8 -11 1.213 1.112 0.093 115.973 o
-10 -8 -10 1.567 1.504 0.118 73.036 o
-10 -8 -9 0.047 0.131 0.076 174.586 o
-10 -8 -8 1.148 0.978 0.106 90.352 o
-10 -8 -7 0.274 0.401 0.074 182.260 o
-10 -8 -6 1.008 1.020 0.084 144.473 o
-10 -8 -5 2.110 1.940 0.106 89.437 o
-10 -8 -4 1.058 1.074 0.083 146.355 o
-10 -8 -3 1.249 1.294 0.075 177.089 o
-10 -8 -2 0.546 0.513 0.067 222.141 o
-10 -8 -1 4.561 4.450 0.154 42.733 o
-10 -7 -18 0.288 0.332 0.082 148.274 o
-10 -7 -17 0.533 0.647 0.083 146.355 o
-10 -7 -16 0.147 0.206 0.091 122.979 o
-10 -7 -15 0.762 0.660 0.118 73.036 o
-10 -7 -14 0.453 0.418 0.087 132.257 o
-10 -7 -13 0.689 0.693 0.078 165.087 o
-10 -7 -12 0.620 0.750 0.079 162.833 o
-10 -7 -11 0.166 0.296 0.074 182.260 o
-10 -7 -10 0.012 0.056 0.101 99.258 o
-10 -7 -9 0.708 0.636 0.080 158.462 o
-10 -7 -8 0.584 0.619 0.085 139.038 o
-10 -7 -7 2.420 2.511 0.147 46.572 o
-10 -7 -6 1.347 1.245 0.088 129.051 o
-10 -7 -5 0.078 0.192 0.071 199.205 o
-10 -7 -4 0.166 0.309 0.062 262.454 o
-10 -7 -3 9.317 8.799 0.257 15.255 o
-10 -7 -2 0.859 0.888 0.068 215.199 o
-10 -7 -1 3.790 3.621 0.122 67.359 o
-10 -6 -19 0.085 0.084 0.084 142.626 o
-10 -6 -18 0.088 0.143 0.079 162.833 o
-10 -6 -17 0.737 0.908 0.091 122.979 o
-10 -6 -16 1.013 0.992 0.091 122.979 o
-10 -6 -15 0.094 0.102 0.074 184.930 o
-10 -6 -14 0.181 0.337 0.072 193.303 o
-10 -6 -13 0.473 0.530 0.094 114.644 o
-10 -6 -12 0.663 0.769 0.078 167.388 o
-10 -6 -11 0.784 0.889 0.076 174.586 o
-10 -6 -10 0.850 0.880 0.084 144.473 o
-10 -6 -9 1.103 1.062 0.085 140.815 o
-10 -6 -8 0.190 0.242 0.070 205.382 o
-10 -6 -7 4.608 4.594 0.160 39.615 o
-10 -6 -6 0.147 0.162 0.061 267.078 o
-10 -6 -5 8.228 8.020 0.300 11.188 o
-10 -6 -4 1.407 1.549 0.084 142.626 o
-10 -6 -3 1.243 1.388 0.075 177.089 o
-10 -6 -2 7.171 7.161 0.220 20.851 o
-10 -6 -1 6.916 6.662 0.217 21.372 o
-10 -5 -21 0.135 0.344 0.102 97.168 o
-10 -5 -20 0.108 0.063 0.077 169.737 o
-10 -5 -19 0.003 0.066 0.080 156.342 o
-10 -5 -18 0.992 1.101 0.111 81.793 o
-10 -5 -17 0.155 0.205 0.080 156.342 o
-10 -5 -16 0.009 -0.059 0.298 11.391 o
-10 -5 -15 0.186 0.231 0.095 112.053 o
-10 -5 -14 0.433 0.541 0.077 169.737 o
-10 -5 -13 0.202 0.234 0.074 184.930 o
-10 -5 -12 0.621 0.732 0.091 122.979 o
-10 -5 -11 0.193 0.209 0.091 122.979 o
-10 -5 -10 0.198 0.265 0.077 169.737 o
-10 -5 -9 4.935 4.635 0.188 28.497 o
-10 -5 -8 1.483 1.473 0.069 211.850 o
-10 -5 -7 1.994 2.177 0.102 97.168 o
-10 -5 -6 2.007 2.039 0.102 96.148 o
-10 -5 -5 5.662 5.666 0.177 32.263 o
-10 -5 -4 7.049 7.379 0.222 20.448 o
-10 -5 -3 9.263 9.350 0.284 12.498 o
-10 -5 -2 1.519 1.728 0.077 169.737 o
-10 -5 -1 0.900 1.016 0.059 292.143 o
-10 -4 -21 0.228 0.298 0.091 122.979 o
-10 -4 -20 0.114 0.181 0.086 137.295 o
-10 -4 -19 0.963 0.998 0.106 89.437 o
-10 -4 -18 0.122 0.290 0.075 177.089 o
-10 -4 -17 1.072 1.081 0.085 139.038 o
-10 -4 -16 0.056 0.063 0.073 187.660 o
-10 -4 -15 0.723 0.781 0.080 158.462 o
-10 -4 -14 0.257 0.339 0.072 193.303 o
-10 -4 -13 1.338 1.150 0.093 117.325 o
-10 -4 -12 0.006 0.032 0.067 222.141 o
-10 -4 -11 1.410 1.455 0.070 208.578 o
-10 -4 -10 2.255 2.169 0.087 133.905 o
-10 -4 -9 0.594 0.657 0.060 281.710 o
-10 -4 -8 3.385 3.602 0.132 58.300 o
-10 -4 -7 2.434 2.488 0.099 103.645 o
-10 -4 -6 7.688 7.779 0.244 16.914 o
-10 -4 -5 12.829 12.823 0.379 7.003 o
-10 -4 -4 8.275 8.416 0.261 14.817 o
-10 -4 -3 1.377 1.511 0.069 211.850 o
-10 -4 -2 6.366 6.418 0.198 25.770 o
-10 -4 -1 20.663 20.163 0.569 3.118 o
-10 -3 -22 0.048 0.281 0.087 132.257 o
-10 -3 -21 0.920 0.956 0.101 99.258 o
-10 -3 -20 0.112 0.136 0.077 169.737 o
-10 -3 -19 0.462 0.632 0.099 102.521 o
-10 -3 -18 0.577 0.602 0.088 130.639 o
-10 -3 -17 1.110 1.213 0.076 174.586 o
-10 -3 -16 0.370 0.375 0.065 241.038 o
-10 -3 -15 0.146 0.108 0.075 177.089 o
-10 -3 -14 1.717 1.694 0.082 148.274 o
-10 -3 -13 3.508 3.481 0.118 73.036 o
-10 -3 -12 0.008 0.067 0.057 314.826 o
-10 -3 -11 0.343 0.443 0.058 297.578 o
-10 -3 -10 1.603 1.631 0.080 158.462 o
-10 -3 -9 8.103 8.022 0.309 10.535 o
-10 -3 -8 2.735 2.780 0.109 85.064 o
-10 -3 -7 4.584 4.744 0.151 43.958 o
-10 -3 -6 5.686 5.676 0.177 32.067 o
-10 -3 -5 1.893 1.848 0.082 150.232 o
-10 -3 -4 5.173 5.253 0.165 37.069 o
-10 -3 -3 24.265 24.126 0.692 2.109 o
-10 -3 -2 11.181 11.152 0.321 9.771 o
-10 -3 -1 15.586 15.804 0.433 5.370 o
-10 -2 -23 0.507 0.546 0.092 118.702 o
-10 -2 -22 0.361 0.529 0.083 146.355 o
-10 -2 -21 0.069 0.151 0.089 125.960 o
-10 -2 -20 0.217 0.333 0.088 130.639 o
-10 -2 -19 0.640 0.722 0.078 165.087 o
-10 -2 -18 0.752 0.767 0.072 193.303 o
-10 -2 -17 0.838 0.923 0.077 172.136 o
-10 -2 -16 1.273 1.269 0.080 156.342 o
-10 -2 -15 0.801 0.893 0.074 182.260 o
-10 -2 -14 2.804 2.642 0.127 62.320 o
-10 -2 -13 1.898 1.858 0.080 158.462 o
-10 -2 -12 7.143 7.114 0.259 15.002 o
-10 -2 -11 9.052 9.075 0.333 9.118 o
-10 -2 -10 6.057 6.122 0.199 25.491 o
-10 -2 -9 5.837 5.740 0.181 30.745 o
-10 -2 -8 7.839 7.973 0.237 17.928 o
-10 -2 -7 6.922 6.865 0.215 21.802 o
-10 -2 -6 5.514 5.532 0.191 27.698 o
-10 -2 -5 17.305 17.363 0.502 3.996 o
-10 -2 -4 1.027 1.076 0.056 320.909 o
-10 -2 -3 2.104 2.128 0.079 160.625 o
-10 -2 -2 1.652 1.783 0.080 158.462 o
-10 -2 -1 20.971 21.416 0.689 2.125 o
-10 -1 -23 0.097 0.065 0.087 133.905 o
-10 -1 -22 0.261 0.459 0.082 150.232 o
-10 -1 -21 0.147 0.180 0.081 154.265 o
-10 -1 -20 2.007 1.929 0.098 105.948 o
-10 -1 -19 0.250 0.289 0.070 205.382 o
-10 -1 -18 0.042 0.161 0.067 222.141 o
-10 -1 -17 0.116 0.174 0.078 165.087 o
-10 -1 -16 5.625 5.212 0.177 32.067 o
-10 -1 -15 2.113 2.113 0.090 124.456 o
-10 -1 -14 2.053 1.889 0.082 148.274 o
-10 -1 -13 0.080 0.217 0.056 327.171 o
-10 -1 -12 10.359 10.163 0.317 10.039 o
-10 -1 -11 4.642 4.704 0.156 41.272 o
-10 -1 -10 16.122 15.932 0.475 4.462 o
-10 -1 -9 1.827 1.766 0.078 165.087 o
-10 -1 -8 5.558 5.543 0.167 36.118 o
-10 -1 -7 11.616 11.706 0.334 9.030 o
-10 -1 -6 13.674 13.364 0.407 6.089 o
-10 -1 -5 9.818 9.572 0.266 14.281 o
-10 -1 -4 7.793 7.881 0.258 15.191 o
-10 -1 -3 7.263 7.766 0.255 15.514 o
-10 -1 -2 0.495 0.609 0.054 347.095 o
-10 -1 -1 9.385 9.272 0.312 10.389 o
-9 -12 -5 0.067 0.300 0.128 61.277 o
-9 -12 -4 0.208 0.286 0.129 60.765 o
-9 -12 -3 0.161 0.231 0.099 102.521 o
-9 -12 -2 0.082 0.282 0.095 110.790 o
-9 -12 -1 0.046 0.333 0.103 95.144 o
-9 -11 -11 0.325 0.363 0.087 132.257 o
-9 -11 -10 0.399 0.602 0.089 127.491 o
-9 -11 -9 0.061 0.014 0.082 148.274 o
-9 -11 -8 0.072 0.087 0.083 146.355 o
-9 -11 -7 0.304 0.308 0.093 115.973 o
-9 -11 -6 0.500 0.510 0.103 95.144 o
-9 -11 -5 0.402 0.352 0.084 142.626 o
-9 -11 -4 0.080 0.212 0.083 146.355 o
-9 -11 -3 0.067 0.058 0.079 160.625 o
-9 -11 -2 0.405 0.379 0.078 167.388 o
-9 -11 -1 0.514 0.450 0.085 139.038 o
-9 -10 -14 0.077 0.241 0.086 135.584 o
-9 -10 -13 0.514 0.731 0.096 108.328 o
-9 -10 -12 0.295 0.308 0.106 89.437 o
-9 -10 -11 0.044 0.137 0.078 165.087 o
-9 -10 -10 0.019 0.041 0.078 167.388 o
-9 -10 -9 1.377 1.269 0.107 88.536 o
-9 -10 -8 0.170 0.215 0.081 154.265 o
-9 -10 -7 0.564 0.448 0.107 87.648 o
-9 -10 -6 0.060 0.173 0.085 140.815 o
-9 -10 -5 0.664 0.619 0.096 108.328 o
-9 -10 -4 0.136 0.124 0.074 182.260 o
-9 -10 -3 1.296 1.350 0.089 127.491 o
-9 -10 -2 0.480 0.642 0.071 199.205 o
-9 -10 -1 0.583 0.643 0.071 199.205 o
-9 -9 -17 0.254 0.223 0.104 93.182 o
-9 -9 -16 0.590 0.625 0.086 137.295 o
-9 -9 -15 0.285 0.277 0.080 158.462 o
-9 -9 -14 0.238 0.351 0.079 160.625 o
-9 -9 -13 0.077 0.238 0.082 150.232 o
-9 -9 -12 0.432 0.555 0.112 80.227 o
-9 -9 -11 2.480 2.672 0.140 51.743 o
-9 -9 -10 0.068 0.122 0.099 103.645 o
-9 -9 -9 1.265 1.219 0.095 110.790 o
-9 -9 -8 0.026 0.058 0.071 199.205 o
-9 -9 -7 2.568 2.301 0.126 63.935 o
-9 -9 -6 2.075 1.974 0.108 86.774 o
-9 -9 -5 2.928 2.806 0.131 58.781 o
-9 -9 -4 0.270 0.401 0.067 222.141 o
-9 -9 -3 0.542 0.392 0.068 215.199 o
-9 -9 -2 2.056 1.957 0.093 115.973 o
-9 -9 -1 1.505 1.438 0.081 154.265 o
-9 -8 -19 0.201 0.243 0.084 144.473 o
-9 -8 -18 0.426 0.524 0.086 135.584 o
-9 -8 -17 0.027 0.217 0.077 169.737 o
-9 -8 -16 0.324 0.413 0.105 92.224 o
-9 -8 -15 0.333 0.355 0.079 162.833 o
-9 -8 -14 0.102 0.246 0.073 187.660 o
-9 -8 -13 1.458 1.452 0.091 122.979 o
-9 -8 -12 0.456 0.671 0.084 142.626 o
-9 -8 -11 0.804 1.003 0.093 115.973 o
-9 -8 -10 1.166 1.187 0.082 150.232 o
-9 -8 -9 2.143 2.177 0.112 81.004 o
-9 -8 -8 0.471 0.642 0.096 108.328 o
-9 -8 -7 3.888 3.896 0.165 36.828 o
-9 -8 -6 3.623 3.377 0.167 36.118 o
-9 -8 -5 0.569 0.518 0.073 187.660 o
-9 -8 -4 2.154 2.129 0.093 117.325 o
-9 -8 -3 3.307 3.286 0.126 63.389 o
-9 -8 -2 1.142 1.102 0.082 148.274 o
-9 -8 -1 1.367 1.417 0.079 162.833 o
-9 -7 -20 0.192 0.307 0.104 93.182 o
-9 -7 -19 0.130 0.133 0.082 148.274 o
-9 -7 -18 0.197 0.349 0.081 154.265 o
-9 -7 -17 1.090 1.033 0.087 132.257 o
-9 -7 -16 0.213 0.294 0.077 169.737 o
-9 -7 -15 0.578 0.516 0.079 160.625 o
-9 -7 -14 1.989 2.035 0.098 105.948 o
-9 -7 -13 0.900 1.013 0.080 156.342 o
-9 -7 -12 4.817 4.774 0.173 33.685 o
-9 -7 -11 1.699 1.689 0.108 86.774 o
-9 -7 -10 3.579 3.440 0.163 37.806 o
-9 -7 -9 0.908 0.916 0.080 156.342 o
-9 -7 -8 9.075 9.020 0.289 12.081 o
-9 -7 -7 0.037 0.063 0.071 202.258 o
-9 -7 -6 1.778 1.646 0.106 89.437 o
-9 -7 -5 1.829 1.848 0.087 132.257 o
-9 -7 -4 3.820 3.659 0.175 33.064 o
-9 -7 -3 0.891 0.917 0.067 222.141 o
-9 -7 -2 1.869 2.007 0.093 115.973 o
-9 -7 -1 1.115 1.180 0.078 165.087 o
-9 -6 -21 1.146 1.212 0.092 120.102 o
-9 -6 -20 0.225 0.348 0.085 140.815 o
-9 -6 -19 1.158 1.138 0.135 55.535 o
-9 -6 -18 0.314 0.343 0.080 156.342 o
-9 -6 -17 0.047 0.191 0.075 179.647 o
-9 -6 -16 1.993 1.937 0.099 103.645 o
-9 -6 -15 2.842 2.882 0.140 51.345 o
-9 -6 -14 2.844 3.019 0.147 46.572 o
-9 -6 -13 2.153 1.843 0.135 55.094 o
-9 -6 -12 4.637 4.593 0.182 30.382 o
-9 -6 -11 0.492 0.658 0.074 184.930 o
-9 -6 -10 6.405 6.514 0.257 15.319 o
-9 -6 -9 1.168 1.106 0.079 160.625 o
-9 -6 -8 3.133 3.165 0.125 64.487 o
-9 -6 -7 0.201 0.386 0.096 108.328 o
-9 -6 -6 3.383 3.431 0.161 38.825 o
-9 -6 -5 0.052 0.178 0.054 340.256 o
-9 -6 -4 1.217 1.299 0.070 208.578 o
-9 -6 -3 1.825 1.828 0.083 146.355 o
-9 -6 -2 1.148 1.253 0.067 222.141 o
-9 -6 -1 0.514 0.638 0.063 257.948 o
-9 -5 -22 0.284 0.405 0.091 121.528 o
-9 -5 -21 0.704 0.663 0.119 71.066 o
-9 -5 -20 0.367 0.443 0.078 167.388 o
-9 -5 -19 1.321 1.198 0.091 122.979 o
-9 -5 -18 1.926 1.696 0.103 94.156 o
-9 -5 -17 4.582 4.255 0.162 38.310 o
-9 -5 -16 0.233 0.286 0.078 165.087 o
-9 -5 -15 0.247 0.314 0.075 179.647 o
-9 -5 -14 1.535 1.588 0.088 130.639 o
-9 -5 -13 2.989 3.028 0.121 68.562 o
-9 -5 -12 0.023 0.046 0.072 196.221 o
-9 -5 -11 1.828 1.812 0.092 118.702 o
-9 -5 -10 3.636 3.746 0.160 39.615 o
-9 -5 -9 0.574 0.797 0.096 109.549 o
-9 -5 -8 0.230 0.215 0.050 401.313 o
-9 -5 -7 1.384 1.435 0.068 218.629 o
-9 -5 -6 7.580 7.357 0.243 17.140 o
-9 -5 -5 4.329 4.469 0.148 45.897 o
-9 -5 -4 1.589 1.803 0.073 187.660 o
-9 -5 -3 1.839 1.877 0.096 109.549 o
-9 -5 -2 10.066 9.817 0.330 9.267 o
-9 -5 -1 8.131 8.279 0.258 15.191 o
-9 -4 -23 0.114 0.216 0.123 66.188 o
-9 -4 -22 0.259 0.426 0.094 114.644 o
-9 -4 -21 1.582 1.467 0.125 64.487 o
-9 -4 -20 0.739 0.781 0.079 160.625 o
-9 -4 -19 3.548 3.457 0.136 54.657 o
-9 -4 -18 0.188 0.258 0.077 169.737 o
-9 -4 -17 0.200 0.238 0.071 202.258 o
-9 -4 -16 0.061 0.069 0.065 241.038 o
-9 -4 -15 5.294 5.147 0.190 28.013 o
-9 -4 -14 0.203 0.403 0.071 199.205 o
-9 -4 -13 0.910 0.999 0.096 108.328 o
-9 -4 -12 5.720 5.773 0.196 26.341 o
-9 -4 -11 0.459 0.452 0.060 276.702 o
-9 -4 -10 1.784 1.796 0.094 113.337 o
-9 -4 -9 2.038 2.034 0.089 125.960 o
-9 -4 -8 21.020 21.206 0.614 2.675 o
-9 -4 -7 2.093 2.116 0.084 142.626 o
-9 -4 -6 8.238 8.175 0.249 16.332 o
-9 -4 -5 3.989 4.119 0.134 55.982 o
-9 -4 -4 14.826 14.164 0.460 4.759 o
-9 -4 -3 8.367 8.515 0.256 15.384 o
-9 -4 -2 3.106 3.067 0.148 46.233 o
-9 -4 -1 4.867 4.779 0.169 35.204 o
-9 -3 -24 0.374 0.326 0.090 124.456 o
-9 -3 -23 0.482 0.512 0.086 137.295 o
-9 -3 -22 0.413 0.458 0.084 142.626 o
-9 -3 -21 0.594 0.712 0.091 121.528 o
-9 -3 -20 0.341 0.523 0.081 152.228 o
-9 -3 -19 0.376 0.462 0.087 132.257 o
-9 -3 -18 0.270 0.263 0.076 174.586 o
-9 -3 -17 2.364 2.431 0.103 94.156 o
-9 -3 -16 2.217 2.034 0.098 104.787 o
-9 -3 -15 0.408 0.438 0.079 160.625 o
-9 -3 -14 5.446 5.448 0.188 28.497 o
-9 -3 -13 0.149 0.219 0.066 233.200 o
-9 -3 -12 2.330 2.224 0.094 114.644 o
-9 -3 -11 0.899 0.968 0.063 257.948 o
-9 -3 -10 10.050 9.900 0.294 11.686 o
-9 -3 -9 1.998 2.096 0.089 127.491 o
-9 -3 -8 12.468 12.340 0.379 7.003 o
-9 -3 -7 1.553 1.576 0.067 225.738 o
-9 -3 -6 3.492 3.469 0.114 77.228 o
-9 -3 -5 0.306 0.401 0.047 448.212 o
-9 -3 -4 36.666 36.889 1.050 0.915 o
-9 -3 -3 4.625 4.901 0.153 43.339 o
-9 -3 -2 8.433 8.297 0.308 10.609 o
-9 -3 -1 4.234 4.468 0.157 40.708 o
-9 -2 -24 0.169 0.258 0.086 135.584 o
-9 -2 -23 0.290 0.220 0.079 160.625 o
-9 -2 -22 0.729 0.840 0.085 140.815 o
-9 -2 -21 0.205 0.188 0.074 182.260 o
-9 -2 -20 0.005 0.090 0.066 229.424 o
-9 -2 -19 0.236 0.316 0.074 182.260 o
-9 -2 -18 4.576 4.374 0.170 34.981 o
-9 -2 -17 0.436 0.418 0.069 211.850 o
-9 -2 -16 1.473 1.593 0.096 109.549 o
-9 -2 -15 0.158 0.263 0.061 267.078 o
-9 -2 -14 14.535 13.871 0.416 5.824 o
-9 -2 -13 6.737 6.369 0.215 21.802 o
-9 -2 -12 5.289 5.461 0.176 32.460 o
-9 -2 -11 3.927 3.816 0.161 38.825 o
-9 -2 -10 4.508 4.447 0.153 43.034 o
-9 -2 -9 9.920 9.882 0.295 11.600 o
-9 -2 -8 0.860 0.900 0.054 340.256 o
-9 -2 -7 4.705 4.657 0.151 43.958 o
-9 -2 -6 22.094 21.766 0.636 2.493 o
-9 -2 -5 3.221 3.363 0.114 77.228 o
-9 -2 -4 14.581 14.425 0.461 4.737 o
-9 -2 -3 0.720 0.821 0.056 327.171 o
-9 -2 -2 42.509 42.295 1.185 0.718 o
-9 -2 -1 5.420 5.521 0.183 30.026 o
-9 -1 -25 0.408 0.371 0.090 124.456 o
-9 -1 -24 0.318 0.405 0.082 148.274 o
-9 -1 -23 0.044 0.135 0.079 160.625 o
-9 -1 -22 1.289 1.271 0.099 103.645 o
-9 -1 -21 1.037 0.976 0.081 152.228 o
-9 -1 -20 1.493 1.491 0.085 139.038 o
-9 -1 -19 0.413 0.438 0.078 165.087 o
-9 -1 -18 2.280 2.252 0.121 68.562 o
-9 -1 -17 3.002 2.955 0.110 83.404 o
-9 -1 -16 7.795 7.605 0.259 15.002 o
-9 -1 -15 5.258 5.120 0.175 33.064 o
-9 -1 -14 0.876 0.864 0.064 245.106 o
-9 -1 -13 3.396 3.252 0.112 80.227 o
-9 -1 -12 3.669 3.667 0.141 50.565 o
-9 -1 -11 14.131 14.081 0.442 5.162 o
-9 -1 -10 10.327 10.077 0.307 10.683 o
-9 -1 -9 5.626 5.440 0.168 35.886 o
-9 -1 -8 2.824 2.995 0.106 89.437 o
-9 -1 -7 6.508 6.444 0.195 26.487 o
-9 -1 -6 4.123 4.117 0.125 64.487 o
-9 -1 -5 11.076 11.105 0.312 10.354 o
-9 -1 -4 1.583 1.719 0.061 267.078 o
-9 -1 -3 1.115 1.163 0.060 281.710 o
-9 -1 -2 16.811 17.356 0.537 3.492 o
-9 -1 -1 1.520 1.602 0.072 196.221 o
-8 -12 -10 0.104 0.244 0.108 86.774 o
-8 -12 -9 0.282 0.403 0.140 51.345 o
-8 -12 -8 0.223 0.384 0.106 89.437 o
-8 -12 -7 0.222 0.250 0.092 120.102 o
-8 -12 -6 0.166 0.321 0.094 114.644 o
-8 -12 -5 0.167 0.154 0.106 90.352 o
-8 -12 -4 0.340 0.330 0.123 66.188 o
-8 -12 -3 0.225 0.280 0.100 101.416 o
-8 -12 -2 0.740 0.730 0.087 132.257 o
-8 -12 -1 0.003 0.156 0.095 110.790 o
-8 -11 -14 0.044 0.217 0.090 124.456 o
-8 -11 -13 0.153 0.408 0.092 120.102 o
-8 -11 -12 0.188 0.250 0.106 89.437 o
-8 -11 -11 0.255 0.378 0.100 101.416 o
-8 -11 -10 0.509 0.649 0.116 74.394 o
-8 -11 -9 0.373 0.455 0.079 160.625 o
-8 -11 -8 0.004 -0.011 0.295 11.558 o
-8 -11 -7 0.061 0.265 0.083 146.355 o
-8 -11 -6 0.626 0.636 0.085 139.038 o
-8 -11 -5 0.104 0.174 0.076 174.586 o
-8 -11 -4 0.737 0.753 0.080 158.462 o
-8 -11 -3 0.030 0.175 0.072 193.303 o
-8 -11 -2 0.206 0.252 0.080 158.462 o
-8 -11 -1 0.012 0.015 0.070 208.578 o
-8 -10 -17 0.348 0.412 0.260 14.940 o
-8 -10 -16 0.013 0.144 0.087 133.905 o
-8 -10 -15 0.187 0.129 0.082 150.232 o
-8 -10 -14 0.491 0.493 0.082 148.274 o
-8 -10 -13 0.448 0.480 0.088 130.639 o
-8 -10 -12 0.393 0.468 0.108 85.912 o
-8 -10 -11 0.298 0.200 0.117 73.710 o
-8 -10 -10 0.244 0.372 0.079 162.833 o
-8 -10 -9 0.822 0.834 0.088 130.639 o
-8 -10 -8 1.913 1.526 0.113 79.461 o
-8 -10 -7 0.653 0.711 0.077 169.737 o
-8 -10 -6 0.385 0.443 0.087 133.905 o
-8 -10 -5 0.737 0.749 0.072 196.221 o
-8 -10 -4 1.131 1.086 0.075 177.089 o
-8 -10 -3 1.128 1.196 0.085 140.815 o
-8 -10 -2 1.115 1.185 0.094 113.337 o
-8 -10 -1 0.262 0.230 0.071 199.205 o
-8 -9 -19 0.421 0.501 0.105 92.224 o
-8 -9 -18 0.146 0.178 0.084 142.626 o
-8 -9 -17 0.011 0.211 0.078 165.087 o
-8 -9 -16 0.504 0.511 0.096 108.328 o
-8 -9 -15 1.103 1.040 0.099 103.645 o
-8 -9 -14 0.040 0.174 0.077 169.737 o
-8 -9 -13 0.346 0.349 0.074 182.260 o
-8 -9 -12 0.837 0.762 0.087 133.905 o
-8 -9 -11 1.092 1.150 0.084 142.626 o
-8 -9 -10 1.320 1.176 0.092 118.702 o
-8 -9 -9 1.138 1.075 0.085 139.038 o
-8 -9 -8 0.046 0.141 0.071 199.205 o
-8 -9 -7 2.267 2.342 0.114 77.228 o
-8 -9 -6 1.920 1.826 0.112 81.004 o
-8 -9 -5 0.735 0.774 0.073 187.660 o
-8 -9 -4 1.486 1.348 0.090 124.456 o
-8 -9 -3 2.424 2.387 0.102 96.148 o
-8 -9 -2 0.274 0.259 0.069 211.850 o
-8 -9 -1 0.383 0.381 0.078 165.087 o
-8 -8 -20 0.351 0.313 0.085 139.038 o
-8 -8 -19 0.321 0.355 0.081 152.228 o
-8 -8 -18 0.232 0.157 0.084 144.473 o
-8 -8 -17 0.914 0.924 0.082 150.232 o
-8 -8 -16 0.432 0.540 0.076 174.586 o
-8 -8 -15 1.691 1.738 0.097 107.128 o
-8 -8 -14 0.926 0.998 0.084 142.626 o
-8 -8 -13 0.090 0.286 0.077 172.136 o
-8 -8 -12 0.331 0.379 0.096 108.328 o
-8 -8 -11 3.155 2.982 0.141 50.953 o
-8 -8 -10 0.335 0.378 0.070 205.382 o
-8 -8 -9 0.638 0.678 0.071 199.205 o
-8 -8 -8 0.769 0.525 0.111 82.593 o
-8 -8 -7 1.792 1.766 0.106 90.352 o
-8 -8 -6 1.218 1.357 0.124 65.614 o
-8 -8 -5 2.078 2.164 0.110 83.404 o
-8 -8 -4 0.836 0.958 0.071 202.258 o
-8 -8 -3 4.961 4.765 0.165 37.069 o
-8 -8 -2 1.625 1.649 0.089 127.491 o
-8 -8 -1 8.801 8.492 0.275 13.293 o
-8 -7 -22 0.463 0.445 0.105 91.281 o
-8 -7 -21 0.149 0.197 0.076 174.586 o
-8 -7 -20 1.132 1.233 0.087 133.905 o
-8 -7 -19 0.346 0.216 0.083 146.355 o
-8 -7 -18 1.146 0.965 0.093 117.325 o
-8 -7 -17 1.070 1.129 0.092 120.102 o
-8 -7 -16 2.679 2.514 0.113 79.461 o
-8 -7 -15 0.662 0.851 0.086 135.584 o
-8 -7 -14 0.373 0.230 0.071 202.258 o
-8 -7 -13 4.116 4.209 0.154 42.733 o
-8 -7 -12 2.607 2.612 0.120 70.428 o
-8 -7 -11 2.683 2.821 0.127 62.851 o
-8 -7 -10 0.200 0.136 0.096 109.549 o
-8 -7 -9 4.615 4.753 0.199 25.354 o
-8 -7 -8 1.228 1.293 0.113 79.461 o
-8 -7 -7 0.480 0.440 0.083 146.355 o
-8 -7 -6 0.981 0.953 0.099 102.521 o
-8 -7 -5 1.009 0.974 0.068 218.629 o
-8 -7 -4 1.305 1.339 0.073 187.660 o
-8 -7 -3 5.412 5.336 0.175 32.861 o
-8 -7 -2 8.797 8.860 0.278 13.087 o
-8 -7 -1 6.281 6.268 0.200 25.217 o
-8 -6 -23 0.038 0.141 0.085 139.038 o
-8 -6 -22 1.124 1.196 0.088 130.639 o
-8 -6 -21 0.970 0.983 0.104 93.182 o
-8 -6 -20 1.745 1.541 0.098 104.787 o
-8 -6 -19 1.007 1.046 0.084 142.626 o
-8 -6 -18 2.037 2.003 0.098 104.787 o
-8 -6 -17 1.667 1.586 0.092 118.702 o
-8 -6 -16 1.558 1.461 0.095 110.790 o
-8 -6 -15 5.754 5.419 0.198 25.770 o
-8 -6 -14 2.913 2.879 0.132 58.300 o
-8 -6 -13 1.710 1.907 0.138 52.962 o
-8 -6 -12 0.218 0.253 0.072 196.221 o
-8 -6 -11 3.031 3.059 0.130 59.268 o
-8 -6 -10 1.507 1.364 0.089 127.491 o
-8 -6 -9 0.893 0.943 0.072 196.221 o
-8 -6 -8 0.637 0.734 0.071 199.205 o
-8 -6 -7 10.203 10.255 0.341 8.690 o
-8 -6 -6 1.557 1.483 0.113 78.706 o
-8 -6 -5 1.305 1.305 0.068 218.629 o
-8 -6 -4 3.846 3.884 0.202 24.682 o
-8 -6 -3 12.678 12.302 0.386 6.752 o
-8 -6 -2 2.480 2.513 0.104 93.182 o
-8 -6 -1 0.026 0.096 0.052 368.897 o
-8 -5 -24 0.647 0.712 0.089 127.491 o
-8 -5 -23 0.959 0.926 0.091 122.979 o
-8 -5 -22 1.748 1.783 0.104 93.182 o
-8 -5 -21 1.419 1.476 0.105 92.224 o
-8 -5 -20 0.070 0.131 0.079 160.625 o
-8 -5 -19 1.777 1.746 0.098 105.948 o
-8 -5 -18 3.517 3.373 0.129 60.260 o
-8 -5 -17 6.530 6.468 0.212 22.359 o
-8 -5 -16 1.345 1.429 0.093 117.325 o
-8 -5 -15 1.672 1.710 0.099 102.521 o
-8 -5 -14 1.171 1.193 0.089 127.491 o
-8 -5 -13 4.404 4.358 0.181 30.745 o
-8 -5 -12 1.511 1.614 0.089 127.491 o
-8 -5 -11 4.793 4.388 0.214 22.023 o
-8 -5 -10 0.570 0.578 0.075 177.089 o
-8 -5 -9 6.244 6.298 0.216 21.585 o
-8 -5 -8 0.461 0.535 0.075 179.647 o
-8 -5 -7 4.005 3.827 0.153 43.339 o
-8 -5 -6 0.286 0.389 0.052 376.622 o
-8 -5 -5 38.465 38.408 1.193 0.709 o
-8 -5 -4 4.042 4.018 0.139 52.551 o
-8 -5 -3 1.152 1.237 0.096 109.549 o
-8 -5 -2 0.390 0.418 0.048 438.196 o
-8 -5 -1 12.827 12.672 0.388 6.696 o
-8 -4 -25 0.123 0.137 0.085 139.038 o
-8 -4 -24 0.696 0.735 0.085 139.038 o
-8 -4 -23 0.525 0.594 0.089 125.960 o
-8 -4 -22 0.502 0.627 0.086 135.584 o
-8 -4 -21 0.483 0.421 0.074 184.930 o
-8 -4 -20 3.116 3.059 0.139 52.551 o
-8 -4 -19 0.797 0.950 0.075 179.647 o
-8 -4 -18 2.035 2.023 0.117 73.710 o
-8 -4 -17 0.097 0.199 0.061 267.078 o
-8 -4 -16 2.400 2.356 0.108 86.774 o
-8 -4 -15 0.574 0.586 0.093 117.325 o
-8 -4 -14 4.930 5.000 0.180 31.114 o
-8 -4 -13 12.886 12.275 0.427 5.520 o
-8 -4 -12 0.395 0.357 0.075 179.647 o
-8 -4 -11 1.627 1.621 0.082 148.274 o
-8 -4 -10 3.776 3.820 0.140 51.345 o
-8 -4 -9 31.584 29.320 1.080 0.865 o
-8 -4 -8 1.262 1.371 0.079 160.625 o
-8 -4 -7 10.226 10.283 0.302 11.029 o
-8 -4 -6 4.819 4.912 0.151 44.272 o
-8 -4 -5 3.332 3.235 0.108 85.912 o
-8 -4 -4 11.332 11.612 0.346 8.448 o
-8 -4 -3 3.228 3.248 0.111 81.793 o
-8 -4 -2 7.304 7.304 0.225 19.865 o
-8 -4 -1 4.638 4.816 0.154 42.434 o
-8 -3 -25 0.125 0.183 0.087 133.905 o
-8 -3 -24 0.835 0.671 0.091 121.528 o
-8 -3 -23 0.483 0.561 0.087 133.905 o
-8 -3 -22 1.623 1.626 0.090 124.456 o
-8 -3 -21 0.195 0.179 0.075 177.089 o
-8 -3 -20 0.946 0.932 0.075 177.089 o
-8 -3 -19 1.138 1.213 0.087 132.257 o
-8 -3 -18 2.041 2.083 0.117 73.710 o
-8 -3 -17 1.245 1.306 0.079 162.833 o
-8 -3 -16 2.344 2.492 0.127 62.320 o
-8 -3 -15 5.009 5.015 0.168 35.657 o
-8 -3 -14 0.965 0.962 0.074 184.930 o
-8 -3 -13 0.576 0.689 0.056 320.909 o
-8 -3 -12 3.436 3.424 0.138 52.962 o
-8 -3 -11 25.796 25.756 0.758 1.753 o
-8 -3 -10 1.577 1.565 0.079 162.833 o
-8 -3 -9 5.023 5.112 0.162 38.310 o
-8 -3 -8 11.702 11.839 0.360 7.802 o
-8 -3 -7 9.175 8.948 0.289 12.081 o
-8 -3 -6 11.179 11.163 0.351 8.165 o
-8 -3 -5 11.736 11.569 0.346 8.421 o
-8 -3 -4 19.875 20.317 0.589 2.905 o
-8 -3 -3 17.638 17.789 0.522 3.704 o
-8 -3 -2 37.901 38.010 1.184 0.719 o
-8 -3 -1 39.221 38.011 1.167 0.741 o
-8 -2 -26 0.347 0.334 0.106 89.437 o
-8 -2 -25 0.013 0.118 0.102 97.168 o
-8 -2 -24 0.637 0.636 0.079 162.833 o
-8 -2 -23 0.434 0.439 0.074 184.930 o
-8 -2 -22 0.272 0.399 0.071 202.258 o
-8 -2 -21 0.198 0.266 0.072 193.303 o
-8 -2 -20 1.434 1.440 0.100 101.416 o
-8 -2 -19 1.088 1.062 0.074 182.260 o
-8 -2 -18 0.111 0.185 0.063 257.948 o
-8 -2 -17 3.874 3.944 0.137 53.379 o
-8 -2 -16 0.698 0.775 0.068 215.199 o
-8 -2 -15 1.304 1.202 0.084 144.473 o
-8 -2 -14 0.882 0.886 0.080 156.342 o
-8 -2 -13 10.001 10.017 0.326 9.514 o
-8 -2 -12 0.072 0.100 0.050 410.084 o
-8 -2 -11 2.894 2.901 0.102 96.148 o
-8 -2 -10 1.279 1.327 0.068 218.629 o
-8 -2 -9 4.862 4.848 0.155 41.847 o
-8 -2 -8 0.363 0.436 0.046 469.301 o
-8 -2 -7 17.810 17.317 0.515 3.806 o
-8 -2 -6 25.833 26.247 0.778 1.667 o
-8 -2 -5 25.853 26.444 0.782 1.649 o
-8 -2 -4 10.564 10.847 0.329 9.328 o
-8 -2 -3 13.101 13.056 0.376 7.124 o
-8 -2 -2 15.818 15.820 0.457 4.827 o
-8 -2 -1 27.506 27.523 0.773 1.688 o
-8 -1 -26 0.011 0.213 0.085 139.038 o
-8 -1 -25 0.425 0.502 0.078 167.388 o
-8 -1 -24 0.257 0.330 0.079 160.625 o
-8 -1 -23 0.183 0.180 0.073 190.450 o
-8 -1 -22 0.203 0.067 0.092 118.702 o
-8 -1 -21 0.668 0.751 0.073 190.450 o
-8 -1 -20 0.055 0.100 0.068 215.199 o
-8 -1 -19 0.374 0.271 0.068 218.629 o
-8 -1 -18 0.402 0.530 0.067 225.738 o
-8 -1 -17 2.992 2.968 0.135 55.535 o
-8 -1 -16 0.824 0.775 0.066 229.424 o
-8 -1 -15 10.293 10.066 0.306 10.796 o
-8 -1 -14 0.530 0.560 0.058 303.166 o
-8 -1 -13 5.413 5.319 0.179 31.490 o
-8 -1 -12 2.425 2.550 0.096 108.328 o
-8 -1 -11 28.599 28.126 0.914 1.207 o
-8 -1 -10 12.583 12.473 0.373 7.248 o
-8 -1 -9 23.156 22.091 0.654 2.359 o
-8 -1 -8 2.055 2.025 0.086 137.295 o
-8 -1 -7 34.970 34.584 1.031 0.949 o
-8 -1 -6 6.295 6.248 0.187 28.993 o
-8 -1 -5 43.590 43.850 1.226 0.671 o
-8 -1 -4 20.032 20.157 0.573 3.072 o
-8 -1 -3 15.268 15.827 0.447 5.051 o
-8 -1 -2 11.204 11.884 0.383 6.866 o
-8 -1 -1 13.863 14.623 0.462 4.726 o
-7 -13 -8 0.036 0.217 0.118 73.036 o
-7 -13 -7 0.032 0.127 0.091 121.528 o
-7 -13 -6 0.021 -0.041 0.304 10.912 o
-7 -13 -5 0.106 0.244 0.088 129.051 o
-7 -13 -4 0.305 0.362 0.095 110.790 o
-7 -13 -3 0.134 0.181 0.095 112.053 o
-7 -13 -2 0.054 0.188 0.084 144.473 o
-7 -13 -1 0.065 0.181 0.078 165.087 o
-7 -12 -13 0.213 0.275 0.092 120.102 o
-7 -12 -12 0.301 0.307 0.148 45.897 o
-7 -12 -11 0.753 0.639 0.117 73.710 o
-7 -12 -10 0.013 0.003 0.106 89.437 o
-7 -12 -9 0.015 0.162 0.086 135.584 o
-7 -12 -8 0.021 0.215 0.085 139.038 o
-7 -12 -7 0.753 0.737 0.089 125.960 o
-7 -12 -6 0.131 0.127 0.085 140.815 o
-7 -12 -5 0.197 0.282 0.097 107.128 o
-7 -12 -4 0.336 0.347 0.099 102.521 o
-7 -12 -3 0.414 0.465 0.084 142.626 o
-7 -12 -2 0.025 0.099 0.080 158.462 o
-7 -12 -1 0.409 0.300 0.080 156.342 o
-7 -11 -16 0.115 0.185 0.109 85.064 o
-7 -11 -15 0.355 0.344 0.088 129.051 o
-7 -11 -14 0.376 0.424 0.100 101.416 o
-7 -11 -13 0.581 0.460 0.084 142.626 o
-7 -11 -12 0.005 0.133 0.081 152.228 o
-7 -11 -11 0.072 0.241 0.079 162.833 o
-7 -11 -10 0.005 0.191 0.075 177.089 o
-7 -11 -9 1.237 1.176 0.094 113.337 o
-7 -11 -8 0.220 0.247 0.075 177.089 o
-7 -11 -7 0.097 0.150 0.082 150.232 o
-7 -11 -6 0.101 0.281 0.079 162.833 o
-7 -11 -5 1.051 0.953 0.079 162.833 o
-7 -11 -4 1.454 1.278 0.106 90.352 o
-7 -11 -3 0.498 0.624 0.072 196.221 o
-7 -11 -2 0.320 0.370 0.070 208.578 o
-7 -11 -1 0.630 0.634 0.073 187.660 o
-7 -10 -18 0.452 0.332 0.088 129.051 o
-7 -10 -17 0.148 0.309 0.088 129.051 o
-7 -10 -16 0.795 0.807 0.098 105.948 o
-7 -10 -15 0.023 -0.005 0.373 7.248 o
-7 -10 -14 0.101 0.126 0.075 179.647 o
-7 -10 -13 0.036 0.089 0.079 160.625 o
-7 -10 -12 0.136 0.268 0.076 174.586 o
-7 -10 -11 0.235 0.431 0.077 169.737 o
-7 -10 -10 1.202 1.089 0.095 110.790 o
-7 -10 -9 0.035 0.010 0.075 177.089 o
-7 -10 -8 0.248 0.310 0.076 174.586 o
-7 -10 -7 0.443 0.589 0.075 179.647 o
-7 -10 -6 4.731 4.598 0.177 32.263 o
-7 -10 -5 0.283 0.453 0.073 190.450 o
-7 -10 -4 0.708 0.764 0.076 174.586 o
-7 -10 -3 0.275 0.322 0.066 233.200 o
-7 -10 -2 7.998 7.922 0.273 13.556 o
-7 -10 -1 0.310 0.430 0.067 225.738 o
-7 -9 -20 0.460 0.585 0.099 103.645 o
-7 -9 -19 0.018 0.160 0.081 152.228 o
-7 -9 -18 0.451 0.393 0.081 154.265 o
-7 -9 -17 0.169 0.241 0.074 184.930 o
-7 -9 -16 0.533 0.746 0.086 137.295 o
-7 -9 -15 0.055 0.141 0.070 205.382 o
-7 -9 -14 0.509 0.612 0.080 158.462 o
-7 -9 -13 0.321 0.304 0.072 193.303 o
-7 -9 -12 1.750 1.623 0.099 103.645 o
-7 -9 -11 0.062 0.140 0.081 152.228 o
-7 -9 -10 2.520 2.490 0.120 70.428 o
-7 -9 -9 0.548 0.486 0.076 174.586 o
-7 -9 -8 2.527 2.474 0.123 66.770 o
-7 -9 -7 0.114 0.219 0.066 229.424 o
-7 -9 -6 6.849 6.696 0.226 19.771 o
-7 -9 -5 0.601 0.645 0.068 215.199 o
-7 -9 -4 3.236 3.396 0.128 61.795 o
-7 -9 -3 0.505 0.589 0.071 202.258 o
-7 -9 -2 2.632 2.447 0.109 84.228 o
-7 -9 -1 0.192 0.223 0.067 222.141 o
-7 -8 -22 0.217 0.303 0.086 137.295 o
-7 -8 -21 0.250 0.187 0.093 117.325 o
-7 -8 -20 0.124 0.165 0.093 115.973 o
-7 -8 -19 0.108 0.207 0.080 156.342 o
-7 -8 -18 0.245 0.392 0.075 177.089 o
-7 -8 -17 0.256 0.394 0.074 184.930 o
-7 -8 -16 1.393 1.431 0.088 130.639 o
-7 -8 -15 0.468 0.562 0.075 179.647 o
-7 -8 -14 0.986 1.114 0.101 98.205 o
-7 -8 -13 0.248 0.325 0.092 118.702 o
-7 -8 -12 5.309 5.174 0.204 24.292 o
-7 -8 -11 2.851 2.832 0.149 45.565 o
-7 -8 -10 0.165 0.240 0.096 109.549 o
-7 -8 -9 0.712 0.762 0.080 156.342 o
-7 -8 -8 5.947 6.116 0.267 14.109 o
-7 -8 -7 4.867 4.896 0.179 31.490 o
-7 -8 -6 0.024 0.064 0.059 286.856 o
-7 -8 -5 1.862 1.790 0.109 85.064 o
-7 -8 -4 7.810 7.930 0.281 12.787 o
-7 -8 -3 1.744 1.606 0.084 144.473 o
-7 -8 -2 0.583 0.577 0.066 233.200 o
-7 -8 -1 1.120 1.168 0.072 196.221 o
-7 -7 -23 0.160 0.273 0.088 129.051 o
-7 -7 -22 0.066 0.169 0.078 165.087 o
-7 -7 -21 0.030 -0.083 0.303 10.950 o
-7 -7 -20 0.094 0.084 0.088 129.051 o
-7 -7 -19 0.349 0.292 0.074 182.260 o
-7 -7 -18 0.924 0.919 0.144 48.688 o
-7 -7 -17 0.105 0.128 0.087 132.257 o
-7 -7 -16 0.316 0.298 0.072 196.221 o
-7 -7 -15 0.667 0.719 0.077 172.136 o
-7 -7 -14 2.713 2.855 0.123 66.188 o
-7 -7 -13 1.853 1.984 0.113 78.706 o
-7 -7 -12 2.584 2.537 0.157 40.989 o
-7 -7 -11 1.319 1.253 0.123 66.770 o
-7 -7 -10 3.639 3.345 0.162 38.310 o
-7 -7 -9 6.421 6.155 0.269 13.940 o
-7 -7 -8 4.081 3.681 0.135 55.094 o
-7 -7 -7 4.359 4.212 0.153 43.034 o
-7 -7 -6 0.454 0.529 0.064 249.278 o
-7 -7 -5 2.118 2.000 0.094 113.337 o
-7 -7 -4 2.083 2.186 0.093 115.973 o
-7 -7 -3 3.469 3.373 0.127 62.320 o
-7 -7 -2 11.462 11.483 0.357 7.920 o
-7 -7 -1 0.491 0.558 0.062 262.454 o
-7 -6 -25 0.004 0.010 0.127 62.320 o
-7 -6 -24 0.075 0.079 0.088 130.639 o
-7 -6 -23 0.016 0.129 0.082 150.232 o
-7 -6 -22 0.231 0.271 0.092 118.702 o
-7 -6 -21 0.177 0.274 0.074 184.930 o
-7 -6 -20 0.392 0.453 0.087 133.905 o
-7 -6 -19 0.045 -0.031 0.352 8.140 o
-7 -6 -18 1.040 1.048 0.106 90.352 o
-7 -6 -17 0.572 0.604 0.075 177.089 o
-7 -6 -16 0.015 -0.018 0.282 12.690 o
-7 -6 -15 0.425 0.462 0.085 139.038 o
-7 -6 -14 2.089 2.260 0.112 80.227 o
-7 -6 -13 2.963 2.867 0.120 69.797 o
-7 -6 -12 1.985 1.930 0.097 107.128 o
-7 -6 -11 3.572 3.516 0.133 56.892 o
-7 -6 -10 10.228 10.678 0.371 7.333 o
-7 -6 -9 2.009 2.205 0.099 102.521 o
-7 -6 -8 3.465 3.528 0.137 53.379 o
-7 -6 -7 0.879 0.959 0.071 199.205 o
-7 -6 -6 28.176 28.121 0.844 1.415 o
-7 -6 -5 6.496 6.470 0.254 15.646 o
-7 -6 -4 1.979 2.010 0.092 120.102 o
-7 -6 -3 2.536 2.677 0.107 87.648 o
-7 -6 -2 12.822 12.657 0.384 6.847 o
-7 -6 -1 2.884 2.827 0.119 71.066 o
-7 -5 -25 0.233 0.421 0.109 85.064 o
-7 -5 -24 0.191 0.266 0.086 135.584 o
-7 -5 -23 0.118 0.167 0.086 135.584 o
-7 -5 -22 0.082 0.129 0.079 160.625 o
-7 -5 -21 0.269 0.306 0.076 174.586 o
-7 -5 -20 0.366 0.312 0.079 160.625 o
-7 -5 -19 0.086 0.264 0.085 139.038 o
-7 -5 -18 0.261 0.214 0.074 184.930 o
-7 -5 -17 0.525 0.437 0.079 162.833 o
-7 -5 -16 0.214 0.319 0.103 95.144 o
-7 -5 -15 3.375 3.519 0.158 40.431 o
-7 -5 -14 0.514 0.677 0.078 165.087 o
-7 -5 -13 2.827 2.834 0.115 75.792 o
-7 -5 -12 3.596 3.568 0.153 43.034 o
-7 -5 -11 1.533 1.474 0.085 139.038 o
-7 -5 -10 0.610 0.686 0.070 208.578 o
-7 -5 -9 4.866 4.939 0.179 31.490 o
-7 -5 -8 27.655 29.090 0.912 1.214 o
-7 -5 -7 3.319 3.467 0.125 65.047 o
-7 -5 -6 3.809 3.732 0.184 29.675 o
-7 -5 -5 2.529 2.645 0.100 100.328 o
-7 -5 -4 31.871 31.721 0.934 1.157 o
-7 -5 -3 4.962 5.111 0.162 38.566 o
-7 -5 -2 6.443 6.773 0.212 22.473 o
-7 -5 -1 10.586 10.833 0.334 9.059 o
-7 -4 -26 0.168 0.167 0.081 154.265 o
-7 -4 -25 0.075 0.096 0.078 167.388 o
-7 -4 -24 0.169 0.330 0.085 140.815 o
-7 -4 -23 0.569 0.623 0.083 146.355 o
-7 -4 -22 0.097 0.164 0.073 190.450 o
-7 -4 -21 0.223 0.264 0.089 125.960 o
-7 -4 -20 0.034 0.178 0.072 196.221 o
-7 -4 -19 0.978 0.939 0.072 193.303 o
-7 -4 -18 0.819 0.867 0.089 127.491 o
-7 -4 -17 2.869 2.987 0.117 73.710 o
-7 -4 -16 0.830 0.715 0.078 167.388 o
-7 -4 -15 0.571 0.682 0.070 205.382 o
-7 -4 -14 4.260 4.207 0.222 20.448 o
-7 -4 -13 4.937 4.858 0.183 30.026 o
-7 -4 -12 11.675 11.720 0.402 6.254 o
-7 -4 -11 11.024 11.152 0.353 8.115 o
-7 -4 -10 11.578 11.636 0.369 7.397 o
-7 -4 -9 2.154 2.089 0.086 135.584 o
-7 -4 -8 16.661 16.846 0.522 3.704 o
-7 -4 -7 9.342 9.572 0.325 9.578 o
-7 -4 -6 6.977 7.262 0.227 19.583 o
-7 -4 -5 9.936 10.350 0.332 9.147 o
-7 -4 -4 24.755 25.320 0.738 1.852 o
-7 -4 -3 3.737 3.746 0.162 38.566 o
-7 -4 -2 4.010 4.084 0.132 57.825 o
-7 -4 -1 6.364 6.683 0.206 23.662 o
-7 -3 -27 0.533 0.520 0.091 122.979 o
-7 -3 -26 0.173 0.349 0.086 137.295 o
-7 -3 -25 0.310 0.348 0.081 154.265 o
-7 -3 -24 0.167 0.293 0.082 150.232 o
-7 -3 -23 0.903 0.854 0.077 169.737 o
-7 -3 -22 0.132 0.158 0.067 222.141 o
-7 -3 -21 0.679 0.701 0.074 182.260 o
-7 -3 -20 0.747 0.735 0.069 211.850 o
-7 -3 -19 4.117 4.040 0.147 46.915 o
-7 -3 -18 1.163 1.085 0.086 137.295 o
-7 -3 -17 0.438 0.563 0.068 215.199 o
-7 -3 -16 0.200 0.146 0.058 303.166 o
-7 -3 -15 10.661 10.427 0.340 8.745 o
-7 -3 -14 11.744 11.297 0.356 7.968 o
-7 -3 -13 10.413 10.599 0.320 9.837 o
-7 -3 -12 0.641 0.738 0.054 347.095 o
-7 -3 -11 3.889 3.904 0.137 53.800 o
-7 -3 -10 14.217 14.257 0.454 4.896 o
-7 -3 -9 39.881 39.927 1.164 0.745 o
-7 -3 -8 6.323 6.228 0.190 27.855 o
-7 -3 -7 12.227 12.467 0.367 7.506 o
-7 -3 -6 4.735 4.982 0.155 42.139 o
-7 -3 -5 17.075 17.458 0.548 3.362 o
-7 -3 -4 5.792 6.134 0.188 28.497 o
-7 -3 -3 19.040 19.607 0.571 3.089 o
-7 -3 -2 67.190 67.106 1.940 0.268 o
-7 -3 -1 0.808 0.862 0.044 516.203 o
-7 -2 -27 0.109 0.150 0.093 117.325 o
-7 -2 -26 0.562 0.487 0.083 146.355 o
-7 -2 -25 0.629 0.603 0.079 162.833 o
-7 -2 -24 0.030 0.114 0.075 177.089 o
-7 -2 -23 0.620 0.496 0.080 158.462 o
-7 -2 -22 1.226 1.092 0.080 156.342 o
-7 -2 -21 2.536 2.572 0.109 84.228 o
-7 -2 -20 0.071 0.192 0.067 225.738 o
-7 -2 -19 1.958 1.921 0.126 63.935 o
-7 -2 -18 1.215 1.308 0.078 167.388 o
-7 -2 -17 10.661 10.376 0.327 9.420 o
-7 -2 -16 0.178 0.258 0.059 286.856 o
-7 -2 -15 9.907 10.122 0.316 10.073 o
-7 -2 -14 7.896 8.112 0.264 14.456 o
-7 -2 -13 14.088 13.952 0.423 5.633 o
-7 -2 -12 0.274 0.350 0.050 410.084 o
-7 -2 -11 40.474 40.658 1.208 0.691 o
-7 -2 -10 2.233 2.355 0.091 122.979 o
-7 -2 -9 0.760 0.783 0.053 361.407 o
-7 -2 -8 25.803 25.177 0.775 1.681 o
-7 -2 -7 51.677 51.662 1.521 0.436 o
-7 -2 -6 14.780 14.775 0.470 4.575 o
-7 -2 -5 32.790 33.312 0.947 1.126 o
-7 -2 -4 62.371 62.951 1.802 0.311 o
-7 -2 -3 11.453 11.436 0.306 10.758 o
-7 -2 -2 6.062 6.183 0.182 30.562 o
-7 -2 -1 26.013 27.025 0.780 1.658 o
-7 -1 -27 0.210 0.388 0.111 82.593 o
-7 -1 -26 0.258 0.316 0.077 172.136 o
-7 -1 -25 0.599 0.580 0.077 172.136 o
-7 -1 -24 1.394 1.177 0.081 152.228 o
-7 -1 -23 0.246 0.397 0.072 193.303 o
-7 -1 -22 3.483 3.248 0.134 55.982 o
-7 -1 -21 1.665 1.726 0.089 127.491 o
-7 -1 -20 1.803 1.699 0.101 99.258 o
-7 -1 -19 2.132 2.161 0.104 93.182 o
-7 -1 -18 9.867 9.279 0.292 11.815 o
-7 -1 -17 4.313 4.219 0.145 47.967 o
-7 -1 -16 4.363 4.297 0.223 20.251 o
-7 -1 -15 9.938 9.464 0.318 10.005 o
-7 -1 -14 8.136 8.153 0.252 15.847 o
-7 -1 -13 15.195 15.329 0.487 4.247 o
-7 -1 -12 1.375 1.424 0.078 167.388 o
-7 -1 -11 7.377 7.077 0.233 18.513 o
-7 -1 -10 7.302 7.364 0.230 19.126 o
-7 -1 -9 36.826 37.006 1.093 0.845 o
-7 -1 -8 22.311 22.565 0.679 2.186 o
-7 -1 -7 5.254 5.406 0.174 33.476 o
-7 -1 -6 34.692 34.834 1.045 0.924 o
-7 -1 -5 20.293 20.448 0.587 2.927 o
-7 -1 -4 71.965 74.958 2.082 0.233 o
-7 -1 -3 50.330 50.476 1.414 0.504 o
-7 -1 -2 38.402 40.047 1.115 0.811 o
-7 -1 -1 18.061 18.771 0.577 3.032 o
-6 -14 -3 0.014 0.252 0.106 89.437 o
-6 -14 -2 0.033 0.020 0.112 81.004 o
-6 -14 -1 0.016 -0.036 0.314 10.212 o
-6 -13 -11 0.263 0.275 0.103 95.144 o
-6 -13 -10 0.054 0.151 0.089 125.960 o
-6 -13 -9 0.327 0.350 0.094 114.644 o
-6 -13 -8 0.064 0.231 0.090 124.456 o
-6 -13 -7 0.058 0.247 0.087 133.905 o
-6 -13 -6 0.062 0.240 0.081 152.228 o
-6 -13 -5 0.086 0.155 0.082 150.232 o
-6 -13 -4 0.003 0.078 0.080 156.342 o
-6 -13 -3 0.232 0.203 0.079 160.625 o
-6 -13 -2 0.111 0.163 0.076 174.586 o
-6 -13 -1 0.072 0.148 0.076 174.586 o
-6 -12 -15 0.322 0.228 0.129 60.260 o
-6 -12 -14 0.010 -0.114 0.370 7.376 o
-6 -12 -13 0.070 0.235 0.094 113.337 o
-6 -12 -12 0.105 0.077 0.119 71.066 o
-6 -12 -11 0.083 0.180 0.096 108.328 o
-6 -12 -10 0.024 -0.001 0.387 6.733 o
-6 -12 -9 0.010 0.040 0.085 140.815 o
-6 -12 -8 0.120 0.156 0.081 154.265 o
-6 -12 -7 0.235 0.235 0.074 184.930 o
-6 -12 -6 0.039 0.030 0.113 79.461 o
-6 -12 -5 0.341 0.356 0.096 108.328 o
-6 -12 -4 0.195 0.440 0.075 177.089 o
-6 -12 -3 0.027 0.086 0.089 127.491 o
-6 -12 -2 0.241 0.339 0.083 146.355 o
-6 -12 -1 0.275 0.307 0.089 127.491 o
-6 -11 -18 0.102 0.179 0.094 114.644 o
-6 -11 -17 0.197 0.253 0.149 45.236 o
-6 -11 -16 0.001 0.094 0.087 132.257 o
-6 -11 -15 0.229 0.316 0.081 152.228 o
-6 -11 -14 0.155 0.191 0.087 133.905 o
-6 -11 -13 0.169 0.406 0.081 152.228 o
-6 -11 -12 0.140 0.246 0.075 179.647 o
-6 -11 -11 0.006 0.079 0.072 193.303 o
-6 -11 -10 0.244 0.270 0.077 172.136 o
-6 -11 -9 1.466 1.537 0.106 90.352 o
-6 -11 -8 0.045 0.132 0.070 205.382 o
-6 -11 -7 0.716 0.778 0.094 114.644 o
-6 -11 -6 0.573 0.636 0.075 177.089 o
-6 -11 -5 0.545 0.553 0.072 196.221 o
-6 -11 -4 0.595 0.647 0.073 187.660 o
-6 -11 -3 1.875 1.645 0.088 129.051 o
-6 -11 -2 0.077 0.057 0.086 137.295 o
-6 -11 -1 0.544 0.595 0.084 142.626 o
-6 -10 -20 0.058 0.065 0.105 92.224 o
-6 -10 -19 0.181 0.090 0.092 118.702 o
-6 -10 -18 0.034 0.084 0.081 154.265 o
-6 -10 -17 0.211 0.335 0.079 162.833 o
-6 -10 -16 0.097 0.128 0.081 154.265 o
-6 -10 -15 0.195 0.262 0.079 162.833 o
-6 -10 -14 0.509 0.643 0.074 184.930 o
-6 -10 -13 0.639 0.717 0.079 162.833 o
-6 -10 -12 0.193 0.190 0.069 211.850 o
-6 -10 -11 1.114 1.262 0.085 140.815 o
-6 -10 -10 0.774 0.827 0.079 160.625 o
-6 -10 -9 0.212 0.384 0.077 169.737 o
-6 -10 -8 1.311 1.209 0.083 146.355 o
-6 -10 -7 0.583 0.637 0.073 187.660 o
-6 -10 -6 0.210 0.263 0.074 184.930 o
-6 -10 -5 0.191 0.199 0.078 165.087 o
-6 -10 -4 0.330 0.175 0.072 196.221 o
-6 -10 -3 0.087 0.167 0.065 237.071 o
-6 -10 -2 0.717 0.608 0.108 85.912 o
-6 -10 -1 0.492 0.569 0.072 196.221 o
-6 -9 -22 0.096 0.010 0.095 112.053 o
-6 -9 -21 0.447 0.412 0.106 90.352 o
-6 -9 -20 0.250 0.246 0.081 154.265 o
-6 -9 -19 0.397 0.418 0.085 140.815 o
-6 -9 -18 0.383 0.448 0.080 156.342 o
-6 -9 -17 0.062 0.017 0.078 167.388 o
-6 -9 -16 0.751 0.798 0.075 177.089 o
-6 -9 -15 2.913 2.713 0.112 81.004 o
-6 -9 -14 0.201 0.231 0.071 202.258 o
-6 -9 -13 0.841 0.836 0.077 169.737 o
-6 -9 -12 1.698 1.671 0.093 115.973 o
-6 -9 -11 1.760 1.847 0.114 77.228 o
-6 -9 -10 0.845 0.831 0.082 148.274 o
-6 -9 -9 2.691 2.586 0.122 67.957 o
-6 -9 -8 0.342 0.398 0.092 120.102 o
-6 -9 -7 2.394 2.759 0.118 72.370 o
-6 -9 -6 0.511 0.475 0.068 215.199 o
-6 -9 -5 1.523 1.445 0.085 140.815 o
-6 -9 -4 0.824 0.774 0.072 193.303 o
-6 -9 -3 4.532 4.560 0.161 39.086 o
-6 -9 -2 2.798 2.817 0.111 81.793 o
-6 -9 -1 0.362 0.333 0.060 276.702 o
-6 -8 -23 0.332 0.340 0.105 92.224 o
-6 -8 -22 0.449 0.495 0.084 142.626 o
-6 -8 -21 0.200 0.184 0.081 154.265 o
-6 -8 -20 0.987 0.976 0.086 137.295 o
-6 -8 -19 0.545 0.493 0.094 113.337 o
-6 -8 -18 1.061 1.014 0.079 162.833 o
-6 -8 -17 2.219 2.115 0.101 99.258 o
-6 -8 -16 1.575 1.373 0.088 130.639 o
-6 -8 -15 1.166 1.242 0.086 135.584 o
-6 -8 -14 1.294 1.102 0.114 77.962 o
-6 -8 -13 1.570 1.483 0.127 62.851 o
-6 -8 -12 0.055 0.038 0.095 110.790 o
-6 -8 -11 3.425 3.634 0.141 50.565 o
-6 -8 -10 0.546 0.602 0.069 211.850 o
-6 -8 -9 1.757 1.965 0.097 107.128 o
-6 -8 -8 0.763 0.838 0.097 107.128 o
-6 -8 -7 3.964 3.731 0.244 16.914 o
-6 -8 -6 3.992 3.893 0.150 44.912 o
-6 -8 -5 2.486 2.882 0.121 68.562 o
-6 -8 -4 5.742 5.987 0.211 22.704 o
-6 -8 -3 2.495 2.541 0.107 87.648 o
-6 -8 -2 1.748 1.719 0.087 132.257 o
-6 -8 -1 0.308 0.448 0.057 308.914 o
-6 -7 -25 0.099 0.172 0.109 85.064 o
-6 -7 -24 0.269 0.157 0.111 81.793 o
-6 -7 -23 0.071 0.202 0.084 142.626 o
-6 -7 -22 0.597 0.445 0.080 158.462 o
-6 -7 -21 1.277 1.167 0.084 144.473 o
-6 -7 -20 0.780 0.944 0.079 162.833 o
-6 -7 -19 1.804 1.545 0.094 113.337 o
-6 -7 -18 0.978 1.027 0.084 144.473 o
-6 -7 -17 1.148 1.051 0.085 140.815 o
-6 -7 -16 1.545 1.455 0.096 109.549 o
-6 -7 -15 4.083 3.925 0.150 44.590 o
-6 -7 -14 0.677 0.755 0.080 158.462 o
-6 -7 -13 1.916 1.892 0.097 107.128 o
-6 -7 -12 2.808 2.560 0.117 73.710 o
-6 -7 -11 4.886 4.857 0.177 32.067 o
-6 -7 -10 3.017 3.200 0.136 54.226 o
-6 -7 -9 1.267 1.247 0.078 165.087 o
-6 -7 -8 11.934 12.013 0.409 6.041 o
-6 -7 -7 5.849 5.745 0.185 29.503 o
-6 -7 -6 5.767 5.688 0.217 21.478 o
-6 -7 -5 3.110 3.436 0.139 52.551 o
-6 -7 -4 14.592 15.001 0.477 4.432 o
-6 -7 -3 17.279 16.735 0.520 3.727 o
-6 -7 -2 19.187 19.072 0.716 1.965 o
-6 -7 -1 20.584 21.241 0.654 2.359 o
-6 -6 -26 0.090 0.157 0.098 104.787 o
-6 -6 -25 0.118 0.284 0.120 70.428 o
-6 -6 -24 0.094 0.140 0.120 70.428 o
-6 -6 -23 0.470 0.682 0.080 156.342 o
-6 -6 -22 0.414 0.330 0.080 158.462 o
-6 -6 -21 0.776 0.775 0.084 142.626 o
-6 -6 -20 0.042 0.103 0.075 179.647 o
-6 -6 -19 0.467 0.568 0.074 184.930 o
-6 -6 -18 0.815 0.733 0.083 146.355 o
-6 -6 -17 2.902 2.863 0.116 74.394 o
-6 -6 -16 2.526 2.733 0.145 47.967 o
-6 -6 -15 5.585 5.435 0.192 27.234 o
-6 -6 -14 3.051 2.947 0.155 41.847 o
-6 -6 -13 6.667 6.476 0.236 18.093 o
-6 -6 -12 10.564 10.122 0.379 7.003 o
-6 -6 -11 5.815 5.862 0.218 21.161 o
-6 -6 -10 8.905 9.326 0.362 7.686 o
-6 -6 -9 19.152 19.587 0.611 2.699 o
-6 -6 -8 7.886 7.647 0.268 14.052 o
-6 -6 -7 2.328 2.352 0.103 95.144 o
-6 -6 -6 23.066 23.362 0.732 1.882 o
-6 -6 -5 20.861 20.815 0.648 2.398 o
-6 -6 -4 12.247 12.361 0.375 7.186 o
-6 -6 -3 23.479 23.509 0.710 1.998 o
-6 -6 -2 16.862 16.586 0.507 3.928 o
-6 -6 -1 31.162 31.054 0.922 1.186 o
-6 -5 -27 0.092 0.129 0.093 115.973 o
-6 -5 -26 0.060 0.155 0.127 62.851 o
-6 -5 -25 0.099 0.221 0.085 140.815 o
-6 -5 -24 0.063 -0.023 0.298 11.350 o
-6 -5 -23 0.070 0.079 0.087 132.257 o
-6 -5 -22 0.217 0.291 0.075 179.647 o
-6 -5 -21 1.048 1.025 0.098 104.787 o
-6 -5 -20 0.150 0.254 0.070 208.578 o
-6 -5 -19 0.357 0.351 0.068 215.199 o
-6 -5 -18 2.377 2.436 0.103 95.144 o
-6 -5 -17 8.351 7.888 0.272 13.664 o
-6 -5 -16 1.704 1.693 0.093 115.973 o
-6 -5 -15 2.183 2.074 0.100 100.328 o
-6 -5 -14 15.019 15.271 0.515 3.806 o
-6 -5 -13 15.723 15.052 0.510 3.879 o
-6 -5 -12 0.488 0.415 0.060 276.702 o
-6 -5 -11 23.470 24.241 0.755 1.771 o
-6 -5 -10 19.940 19.792 0.672 2.236 o
-6 -5 -9 12.058 12.032 0.389 6.658 o
-6 -5 -8 10.748 10.942 0.361 7.732 o
-6 -5 -7 39.442 39.967 1.242 0.654 o
-6 -5 -6 5.685 5.879 0.203 24.551 o
-6 -5 -5 36.781 36.349 1.093 0.845 o
-6 -5 -4 25.980 25.868 0.775 1.679 o
-6 -5 -3 20.840 21.139 0.653 2.367 o
-6 -5 -2 13.105 13.107 0.406 6.122 o
-6 -5 -1 17.988 18.385 0.558 3.240 o
-6 -4 -27 0.146 0.193 0.085 140.815 o
-6 -4 -26 0.057 0.055 0.089 127.491 o
-6 -4 -25 0.373 0.372 0.074 182.260 o
-6 -4 -24 0.564 0.608 0.102 96.148 o
-6 -4 -23 0.997 1.156 0.087 133.905 o
-6 -4 -22 1.593 1.437 0.085 140.815 o
-6 -4 -21 3.003 2.946 0.122 67.957 o
-6 -4 -20 0.078 0.133 0.069 211.850 o
-6 -4 -19 6.051 6.113 0.207 23.539 o
-6 -4 -18 6.512 6.351 0.209 23.175 o
-6 -4 -17 5.380 5.462 0.183 30.026 o
-6 -4 -16 6.275 6.312 0.204 24.164 o
-6 -4 -15 14.276 14.761 0.461 4.737 o
-6 -4 -14 3.163 3.275 0.136 54.657 o
-6 -4 -13 11.575 11.354 0.455 4.873 o
-6 -4 -12 20.791 21.281 0.668 2.257 o
-6 -4 -11 9.781 9.562 0.313 10.318 o
-6 -4 -10 7.627 7.862 0.334 9.030 o
-6 -4 -9 55.655 54.460 1.781 0.318 o
-6 -4 -8 16.144 16.481 0.500 4.030 o
-6 -4 -7 16.731 16.577 0.517 3.774 o
-6 -4 -6 24.046 23.012 0.674 2.218 o
-6 -4 -5 58.740 57.748 1.660 0.366 o
-6 -4 -4 3.160 3.134 0.114 77.228 o
-6 -4 -3 15.771 15.681 0.479 4.392 o
-6 -4 -2 17.628 18.109 0.540 3.457 o
-6 -4 -1 37.056 36.116 1.083 0.859 o
-6 -3 -28 0.024 0.096 0.088 130.639 o
-6 -3 -27 0.874 0.947 0.096 109.549 o
-6 -3 -26 0.774 0.659 0.111 81.793 o
-6 -3 -25 0.036 0.186 0.077 169.737 o
-6 -3 -24 1.697 1.544 0.086 137.295 o
-6 -3 -23 3.470 3.322 0.171 34.541 o
-6 -3 -22 0.869 0.767 0.088 129.051 o
-6 -3 -21 0.427 0.595 0.070 205.382 o
-6 -3 -20 10.786 10.677 0.356 7.968 o
-6 -3 -19 3.231 3.344 0.136 54.226 o
-6 -3 -18 1.370 1.490 0.083 146.355 o
-6 -3 -17 7.659 7.685 0.247 16.547 o
-6 -3 -16 11.686 11.699 0.364 7.618 o
-6 -3 -15 1.647 1.586 0.073 187.660 o
-6 -3 -14 8.731 8.923 0.279 12.936 o
-6 -3 -13 20.974 20.091 0.695 2.089 o
-6 -3 -12 0.943 1.145 0.060 281.710 o
-6 -3 -11 25.811 26.982 0.821 1.496 o
-6 -3 -10 10.794 11.078 0.347 8.395 o
-6 -3 -9 15.848 15.605 0.453 4.919 o
-6 -3 -8 8.927 8.800 0.259 15.002 o
-6 -3 -7 20.012 19.890 0.627 2.566 o
-6 -3 -6 8.989 9.061 0.272 13.664 o
-6 -3 -5 14.698 14.930 0.458 4.815 o
-6 -3 -4 5.334 5.697 0.170 34.760 o
-6 -3 -3 2.590 2.823 0.099 102.521 o
-6 -3 -2 26.466 27.202 0.814 1.522 o
-6 -3 -1 0.909 0.901 0.044 529.028 o
-6 -2 -28 0.517 0.522 0.089 127.491 o
-6 -2 -27 0.464 0.482 0.083 146.355 o
-6 -2 -26 0.278 0.406 0.099 103.645 o
-6 -2 -25 2.398 2.350 0.120 69.797 o
-6 -2 -24 2.023 1.861 0.114 77.962 o
-6 -2 -23 0.657 0.740 0.074 182.260 o
-6 -2 -22 5.715 5.723 0.195 26.634 o
-6 -2 -21 2.699 2.741 0.119 71.066 o
-6 -2 -20 0.752 0.897 0.081 154.265 o
-6 -2 -19 1.224 1.307 0.080 156.342 o
-6 -2 -18 12.449 12.523 0.394 6.496 o
-6 -2 -17 5.470 5.698 0.189 28.173 o
-6 -2 -16 3.949 3.839 0.165 36.828 o
-6 -2 -15 18.932 18.784 0.571 3.095 o
-6 -2 -14 2.463 2.433 0.099 103.645 o
-6 -2 -13 15.948 16.479 0.503 3.979 o
-6 -2 -12 4.933 4.972 0.160 39.349 o
-6 -2 -11 39.555 39.635 1.160 0.749 o
-6 -2 -10 5.496 5.688 0.184 29.675 o
-6 -2 -9 2.182 2.203 0.086 135.584 o
-6 -2 -8 0.016 0.081 0.039 651.333 o
-6 -2 -7 35.236 35.532 1.080 0.864 o
-6 -2 -6 0.216 0.224 0.033 932.801 o
-6 -2 -5 47.033 46.765 1.373 0.535 o
-6 -2 -4 12.709 12.509 0.365 7.551 o
-6 -2 -3 1.702 1.620 0.059 286.856 o
-6 -2 -2 2.641 2.383 0.080 156.342 o
-6 -2 -1 46.127 47.671 1.424 0.497 o
-6 -1 -28 0.110 0.160 0.087 133.905 o
-6 -1 -27 0.276 0.230 0.080 156.342 o
-6 -1 -26 1.677 1.637 0.095 112.053 o
-6 -1 -25 0.328 0.368 0.075 177.089 o
-6 -1 -24 1.023 0.956 0.078 165.087 o
-6 -1 -23 1.890 1.999 0.100 100.328 o
-6 -1 -22 1.472 1.315 0.130 59.761 o
-6 -1 -21 1.398 1.452 0.084 144.473 o
-6 -1 -20 5.732 5.611 0.196 26.341 o
-6 -1 -19 2.300 2.322 0.103 94.156 o
-6 -1 -18 2.101 2.140 0.096 108.328 o
-6 -1 -17 5.961 5.811 0.202 24.814 o
-6 -1 -16 1.932 1.797 0.140 51.345 o
-6 -1 -15 2.163 2.281 0.093 115.973 o
-6 -1 -14 10.483 10.793 0.340 8.745 o
-6 -1 -13 2.192 2.299 0.091 122.979 o
-6 -1 -12 10.545 10.433 0.329 9.328 o
-6 -1 -11 3.915 3.768 0.124 65.614 o
-6 -1 -10 0.291 0.296 0.043 542.336 o
-6 -1 -9 5.196 4.752 0.165 37.069 o
-6 -1 -8 5.629 5.808 0.187 28.826 o
-6 -1 -7 3.166 3.184 0.105 91.281 o
-6 -1 -6 13.473 13.521 0.407 6.089 o
-6 -1 -5 5.508 5.857 0.180 31.114 o
-6 -1 -4 12.973 12.979 0.369 7.419 o
-6 -1 -3 7.959 8.505 0.243 17.140 o
-6 -1 -2 5.274 5.124 0.154 42.434 o
-6 -1 -1 0.635 0.620 0.035 821.527 o
-5 -14 -7 0.007 0.153 0.095 110.790 o
-5 -14 -6 0.119 0.308 0.096 109.549 o
-5 -14 -5 0.072 -0.048 0.342 8.635 o
-5 -14 -4 0.034 0.157 0.094 113.337 o
-5 -14 -3 0.022 0.260 0.094 113.337 o
-5 -14 -2 0.048 0.190 0.086 137.295 o
-5 -14 -1 0.041 0.230 0.089 127.491 o
-5 -13 -13 0.032 0.091 0.132 57.825 o
-5 -13 -12 0.358 0.572 0.106 89.437 o
-5 -13 -11 0.185 0.220 0.113 79.461 o
-5 -13 -10 0.057 0.272 0.086 135.584 o
-5 -13 -9 0.092 0.193 0.083 146.355 o
-5 -13 -8 0.214 0.225 0.082 150.232 o
-5 -13 -7 0.146 0.280 0.088 129.051 o
-5 -13 -6 0.084 0.201 0.087 132.257 o
-5 -13 -5 0.122 0.175 0.075 177.089 o
-5 -13 -4 0.008 0.022 0.079 162.833 o
-5 -13 -3 0.051 0.121 0.086 137.295 o
-5 -13 -2 0.184 0.237 0.082 148.274 o
-5 -13 -1 0.036 0.063 0.080 158.462 o
-5 -12 -16 0.099 0.157 0.116 74.394 o
-5 -12 -15 0.015 0.095 0.119 71.714 o
-5 -12 -14 0.620 0.730 0.093 117.325 o
-5 -12 -13 0.068 0.116 0.083 146.355 o
-5 -12 -12 0.077 0.085 0.103 95.144 o
-5 -12 -11 0.388 0.451 0.081 154.265 o
-5 -12 -10 0.125 0.223 0.107 88.536 o
-5 -12 -9 0.116 0.140 0.071 199.205 o
-5 -12 -8 0.362 0.588 0.073 187.660 o
-5 -12 -7 0.850 0.798 0.075 179.647 o
-5 -12 -6 0.065 0.183 0.072 193.303 o
-5 -12 -5 0.047 0.164 0.092 120.102 o
-5 -12 -4 2.632 2.543 0.142 50.181 o
-5 -12 -3 0.311 0.266 0.078 165.087 o
-5 -12 -2 0.049 0.071 0.075 177.089 o
-5 -12 -1 0.025 0.027 0.074 184.930 o
-5 -11 -19 0.173 0.123 0.115 76.505 o
-5 -11 -18 0.151 0.249 0.086 135.584 o
-5 -11 -17 0.053 0.157 0.084 142.626 o
-5 -11 -16 0.492 0.446 0.099 103.645 o
-5 -11 -15 0.693 0.643 0.086 137.295 o
-5 -11 -14 0.016 0.051 0.074 182.260 o
-5 -11 -13 0.179 0.225 0.074 182.260 o
-5 -11 -12 0.432 0.514 0.092 118.702 o
-5 -11 -11 1.154 1.036 0.094 114.644 o
-5 -11 -10 0.580 0.685 0.098 104.787 o
-5 -11 -9 0.608 0.671 0.076 174.586 o
-5 -11 -8 0.312 0.274 0.095 112.053 o
-5 -11 -7 1.000 0.952 0.114 77.962 o
-5 -11 -6 3.124 3.178 0.151 44.272 o
-5 -11 -5 0.731 0.846 0.095 112.053 o
-5 -11 -4 0.160 0.210 0.074 182.260 o
-5 -11 -3 1.098 1.244 0.113 79.461 o
-5 -11 -2 3.687 3.604 0.141 50.565 o
-5 -11 -1 0.895 0.736 0.076 174.586 o
-5 -10 -21 0.219 0.216 0.108 86.774 o
-5 -10 -20 0.201 0.318 0.101 98.205 o
-5 -10 -19 0.617 0.659 0.106 89.437 o
-5 -10 -18 0.145 0.172 0.081 154.265 o
-5 -10 -17 0.992 1.092 0.107 88.536 o
-5 -10 -16 0.213 0.151 0.070 205.382 o
-5 -10 -15 0.630 0.730 0.074 184.930 o
-5 -10 -14 0.167 0.323 0.078 167.388 o
-5 -10 -13 2.431 2.383 0.118 72.370 o
-5 -10 -12 1.010 0.993 0.081 152.228 o
-5 -10 -11 0.399 0.543 0.074 182.260 o
-5 -10 -10 1.678 1.972 0.134 56.435 o
-5 -10 -9 3.109 2.942 0.126 63.389 o
-5 -10 -8 0.952 1.074 0.079 160.625 o
-5 -10 -7 0.026 0.035 0.078 167.388 o
-5 -10 -6 3.729 3.473 0.160 39.349 o
-5 -10 -5 5.075 5.130 0.190 27.855 o
-5 -10 -4 0.814 0.888 0.077 169.737 o
-5 -10 -3 2.104 2.487 0.108 86.774 o
-5 -10 -2 2.984 2.835 0.148 46.233 o
-5 -10 -1 5.905 6.045 0.212 22.473 o
-5 -9 -23 0.093 0.209 0.100 101.416 o
-5 -9 -22 0.214 0.329 0.086 137.295 o
-5 -9 -21 1.269 1.163 0.102 97.168 o
-5 -9 -20 0.387 0.604 0.095 110.790 o
-5 -9 -19 0.145 0.229 0.073 187.660 o
-5 -9 -18 0.673 0.654 0.083 146.355 o
-5 -9 -17 1.872 1.789 0.091 121.528 o
-5 -9 -16 0.202 0.189 0.068 215.199 o
-5 -9 -15 0.677 0.866 0.080 156.342 o
-5 -9 -14 0.059 0.239 0.072 193.303 o
-5 -9 -13 1.529 1.504 0.100 101.416 o
-5 -9 -12 0.363 0.510 0.094 113.337 o
-5 -9 -11 2.109 2.062 0.121 68.562 o
-5 -9 -10 0.549 0.640 0.078 165.087 o
-5 -9 -9 0.240 0.423 0.067 225.738 o
-5 -9 -8 1.439 1.639 0.097 107.128 o
-5 -9 -7 6.245 6.232 0.216 21.694 o
-5 -9 -6 1.748 1.956 0.093 115.973 o
-5 -9 -5 1.682 1.591 0.085 140.815 o
-5 -9 -4 1.711 1.809 0.089 125.960 o
-5 -9 -3 9.300 9.398 0.308 10.609 o
-5 -9 -2 2.728 3.017 0.118 72.370 o
-5 -9 -1 7.336 7.241 0.280 12.886 o
-5 -8 -24 0.267 0.366 0.095 110.790 o
-5 -8 -23 0.744 0.934 0.096 108.328 o
-5 -8 -22 0.215 0.296 0.077 172.136 o
-5 -8 -21 0.162 0.325 0.074 182.260 o
-5 -8 -20 0.373 0.379 0.071 199.205 o
-5 -8 -19 1.769 1.694 0.101 99.258 o
-5 -8 -18 0.113 0.199 0.069 211.850 o
-5 -8 -17 0.411 0.431 0.079 162.833 o
-5 -8 -16 0.684 0.624 0.084 144.473 o
-5 -8 -15 1.362 1.199 0.101 98.205 o
-5 -8 -14 0.873 0.924 0.084 144.473 o
-5 -8 -13 0.400 0.410 0.081 152.228 o
-5 -8 -12 7.817 7.768 0.294 11.643 o
-5 -8 -11 0.334 0.423 0.066 229.424 o
-5 -8 -10 5.797 6.093 0.222 20.548 o
-5 -8 -9 4.021 4.177 0.149 45.565 o
-5 -8 -8 8.153 8.014 0.288 12.127 o
-5 -8 -7 1.484 1.373 0.084 142.626 o
-5 -8 -6 7.746 7.597 0.256 15.384 o
-5 -8 -5 11.469 11.425 0.382 6.924 o
-5 -8 -4 1.477 1.474 0.081 152.228 o
-5 -8 -3 4.877 4.890 0.164 37.558 o
-5 -8 -2 1.903 1.747 0.092 120.102 o
-5 -8 -1 4.307 4.116 0.142 50.181 o
-5 -7 -26 0.262 0.512 0.134 55.982 o
-5 -7 -25 0.127 0.219 0.092 118.702 o
-5 -7 -24 0.306 0.362 0.101 98.205 o
-5 -7 -23 0.335 0.570 0.078 165.087 o
-5 -7 -22 0.125 0.189 0.080 158.462 o
-5 -7 -21 0.449 0.507 0.091 121.528 o
-5 -7 -20 0.040 0.091 0.068 215.199 o
-5 -7 -19 0.430 0.547 0.079 160.625 o
-5 -7 -18 0.483 0.554 0.081 152.228 o
-5 -7 -17 0.211 0.145 0.084 144.473 o
-5 -7 -16 2.295 2.392 0.114 77.962 o
-5 -7 -15 0.314 0.244 0.069 211.850 o
-5 -7 -14 5.771 5.586 0.248 16.403 o
-5 -7 -13 0.673 0.572 0.070 205.382 o
-5 -7 -12 7.727 8.227 0.274 13.397 o
-5 -7 -11 1.933 2.031 0.105 91.281 o
-5 -7 -10 8.005 7.830 0.289 12.037 o
-5 -7 -9 1.780 1.914 0.112 81.004 o
-5 -7 -8 10.958 11.164 0.362 7.709 o
-5 -7 -7 13.660 13.511 0.459 4.782 o
-5 -7 -6 3.883 3.396 0.124 65.614 o
-5 -7 -5 8.662 8.778 0.292 11.815 o
-5 -7 -4 7.716 7.679 0.256 15.449 o
-5 -7 -3 2.916 2.753 0.125 64.487 o
-5 -7 -2 2.444 2.394 0.102 96.148 o
-5 -7 -1 7.747 7.798 0.253 15.780 o
-5 -6 -27 0.022 0.143 0.097 107.128 o
-5 -6 -26 0.227 0.463 0.099 102.521 o
-5 -6 -25 0.229 0.399 0.081 152.228 o
-5 -6 -24 0.000 0.095 0.074 184.930 o
-5 -6 -23 0.020 0.043 0.069 211.850 o
-5 -6 -22 0.186 0.134 0.068 215.199 o
-5 -6 -21 0.017 0.118 0.078 167.388 o
-5 -6 -20 0.025 0.308 0.101 98.205 o
-5 -6 -19 0.274 0.228 0.086 137.295 o
-5 -6 -18 3.071 2.941 0.128 61.795 o
-5 -6 -17 0.304 0.316 0.069 211.850 o
-5 -6 -16 1.452 1.472 0.102 96.148 o
-5 -6 -15 0.181 0.174 0.068 215.199 o
-5 -6 -14 5.525 5.473 0.202 24.682 o
-5 -6 -13 2.288 2.240 0.113 78.706 o
-5 -6 -12 3.157 2.959 0.132 57.825 o
-5 -6 -11 5.107 4.906 0.210 22.938 o
-5 -6 -10 0.047 0.106 0.058 303.166 o
-5 -6 -9 10.233 10.435 0.346 8.448 o
-5 -6 -8 0.449 0.371 0.054 347.095 o
-5 -6 -7 1.606 1.650 0.075 179.647 o
-5 -6 -6 14.780 14.689 0.516 3.782 o
-5 -6 -5 2.385 2.352 0.086 135.584 o
-5 -6 -4 4.257 4.060 0.132 57.825 o
-5 -6 -3 36.947 36.841 1.088 0.851 o
-5 -6 -2 12.398 12.634 0.385 6.809 o
-5 -6 -1 24.365 24.478 0.832 1.456 o
-5 -5 -27 0.073 0.130 0.088 129.051 o
-5 -5 -26 0.005 0.155 0.074 182.260 o
-5 -5 -25 0.191 0.194 0.091 122.979 o
-5 -5 -24 0.073 0.079 0.071 202.258 o
-5 -5 -23 0.079 0.194 0.068 215.199 o
-5 -5 -22 0.871 0.867 0.084 144.473 o
-5 -5 -21 0.662 0.702 0.079 160.625 o
-5 -5 -20 1.388 1.410 0.119 71.714 o
-5 -5 -19 0.777 0.971 0.079 162.833 o
-5 -5 -18 4.061 4.032 0.156 41.558 o
-5 -5 -17 0.298 0.327 0.064 245.106 o
-5 -5 -16 2.832 2.969 0.118 72.370 o
-5 -5 -15 0.793 0.988 0.093 117.325 o
-5 -5 -14 6.548 6.418 0.221 20.648 o
-5 -5 -13 3.804 4.148 0.149 45.236 o
-5 -5 -12 0.005 0.003 0.056 327.171 o
-5 -5 -11 4.072 4.219 0.157 40.708 o
-5 -5 -10 4.584 4.636 0.156 41.272 o
-5 -5 -9 3.770 3.795 0.133 56.892 o
-5 -5 -8 15.757 15.949 0.495 4.110 o
-5 -5 -7 9.502 9.278 0.319 9.904 o
-5 -5 -6 14.847 14.704 0.498 4.065 o
-5 -5 -5 26.515 26.128 0.924 1.180 o
-5 -5 -4 26.813 25.802 0.789 1.619 o
-5 -5 -3 6.644 6.575 0.206 23.662 o
-5 -5 -2 12.819 12.256 0.378 7.043 o
-5 -5 -1 88.525 89.470 2.652 0.143 o
-5 -4 -28 0.152 0.174 0.088 129.051 o
-5 -4 -27 0.283 0.400 0.088 130.639 o
-5 -4 -26 0.185 0.184 0.074 184.930 o
-5 -4 -25 0.091 0.128 0.074 184.930 o
-5 -4 -24 1.697 1.465 0.123 66.770 o
-5 -4 -23 0.751 0.721 0.113 78.706 o
-5 -4 -22 0.024 0.128 0.070 205.382 o
-5 -4 -21 0.162 0.114 0.067 225.738 o
-5 -4 -20 5.124 4.965 0.203 24.421 o
-5 -4 -19 0.586 0.644 0.068 218.629 o
-5 -4 -18 0.237 0.346 0.064 249.278 o
-5 -4 -17 0.866 0.772 0.068 215.199 o
-5 -4 -16 4.181 4.246 0.158 40.156 o
-5 -4 -15 0.564 0.530 0.055 333.617 o
-5 -4 -14 2.152 2.247 0.089 127.491 o
-5 -4 -13 2.348 2.378 0.099 102.521 o
-5 -4 -12 6.627 6.373 0.202 24.814 o
-5 -4 -11 1.744 1.631 0.074 184.930 o
-5 -4 -10 9.859 9.654 0.306 10.796 o
-5 -4 -9 18.412 19.090 0.587 2.927 o
-5 -4 -8 22.854 22.532 0.702 2.044 o
-5 -4 -7 19.051 18.749 0.598 2.822 o
-5 -4 -6 8.876 9.041 0.293 11.772 o
-5 -4 -5 39.074 39.718 1.127 0.794 o
-5 -4 -4 24.653 24.751 0.757 1.758 o
-5 -4 -3 86.725 87.688 2.835 0.125 o
-5 -4 -2 1.212 1.318 0.054 340.256 o
-5 -4 -1 10.536 10.822 0.327 9.420 o
-5 -3 -29 0.037 0.009 0.085 139.038 o
-5 -3 -28 0.594 0.585 0.085 139.038 o
-5 -3 -27 0.004 -0.051 0.309 10.535 o
-5 -3 -26 1.686 1.393 0.103 94.156 o
-5 -3 -25 0.296 0.405 0.085 139.038 o
-5 -3 -24 0.726 0.749 0.082 148.274 o
-5 -3 -23 0.101 0.127 0.082 148.274 o
-5 -3 -22 2.981 2.915 0.130 59.268 o
-5 -3 -21 0.613 0.672 0.073 190.450 o
-5 -3 -20 0.179 0.223 0.064 245.106 o
-5 -3 -19 2.059 1.853 0.091 122.979 o
-5 -3 -18 1.597 1.871 0.093 115.973 o
-5 -3 -17 0.433 0.404 0.059 292.143 o
-5 -3 -16 5.122 5.289 0.177 32.263 o
-5 -3 -15 10.393 10.468 0.326 9.483 o
-5 -3 -14 17.402 17.212 0.555 3.272 o
-5 -3 -13 1.469 1.482 0.068 215.199 o
-5 -3 -12 49.877 50.055 1.482 0.459 o
-5 -3 -11 7.620 7.944 0.249 16.332 o
-5 -3 -10 50.633 51.798 1.537 0.427 o
-5 -3 -9 0.721 0.755 0.045 491.915 o
-5 -3 -8 95.322 93.242 2.552 0.155 o
-5 -3 -7 60.722 61.597 1.839 0.298 o
-5 -3 -6 24.994 23.756 0.749 1.796 o
-5 -3 -5 36.492 36.636 1.071 0.879 o
-5 -3 -4 35.477 35.475 1.073 0.876 o
-5 -3 -3 40.299 38.765 1.145 0.769 o
-5 -3 -2 20.436 20.224 0.617 2.648 o
-5 -3 -1 22.265 23.353 0.697 2.076 o
-5 -2 -29 0.149 0.126 0.089 127.491 o
-5 -2 -28 0.545 0.598 0.085 139.038 o
-5 -2 -27 0.321 0.360 0.095 110.790 o
-5 -2 -26 1.193 1.260 0.086 135.584 o
-5 -2 -25 0.335 0.347 0.073 190.450 o
-5 -2 -24 0.851 0.871 0.089 125.960 o
-5 -2 -23 1.409 1.502 0.094 113.337 o
-5 -2 -22 3.336 3.304 0.129 60.260 o
-5 -2 -21 0.416 0.467 0.087 132.257 o
-5 -2 -20 0.399 0.487 0.068 218.629 o
-5 -2 -19 1.413 1.488 0.084 144.473 o
-5 -2 -18 13.519 13.260 0.422 5.661 o
-5 -2 -17 0.958 1.003 0.066 233.200 o
-5 -2 -16 0.734 0.723 0.057 314.826 o
-5 -2 -15 2.878 3.049 0.122 67.957 o
-5 -2 -14 40.275 40.144 1.264 0.631 o
-5 -2 -13 0.312 0.384 0.046 469.301 o
-5 -2 -12 8.138 8.187 0.257 15.255 o
-5 -2 -11 21.247 21.468 0.652 2.371 o
-5 -2 -10 73.332 74.263 2.254 0.198 o
-5 -2 -9 11.801 11.950 0.388 6.696 o
-5 -2 -8 34.742 34.904 1.038 0.937 o
-5 -2 -7 8.502 8.639 0.271 13.773 o
-5 -2 -6 9.496 9.424 0.296 11.474 o
-5 -2 -5 34.690 33.413 0.996 1.017 o
-5 -2 -4 109.601 110.075 3.107 0.105 o
-5 -2 -3 17.852 17.520 0.509 3.887 o
-5 -2 -2 121.358 120.620 3.888 0.067 o
-5 -2 -1 25.875 24.561 0.742 1.831 o
-5 -1 -29 0.406 0.516 0.113 79.461 o
-5 -1 -28 0.238 0.313 0.085 140.815 o
-5 -1 -27 0.449 0.416 0.079 160.625 o
-5 -1 -26 0.054 -0.002 0.294 11.686 o
-5 -1 -25 1.763 1.883 0.119 71.066 o
-5 -1 -24 1.463 1.247 0.082 150.232 o
-5 -1 -23 0.339 0.314 0.071 199.205 o
-5 -1 -22 0.125 0.192 0.075 177.089 o
-5 -1 -21 4.309 4.125 0.158 40.431 o
-5 -1 -20 10.141 10.060 0.357 7.896 o
-5 -1 -19 3.289 3.210 0.122 67.359 o
-5 -1 -18 1.738 1.553 0.088 129.051 o
-5 -1 -17 4.101 3.985 0.139 52.145 o
-5 -1 -16 21.596 21.659 0.683 2.162 o
-5 -1 -15 11.329 11.523 0.369 7.419 o
-5 -1 -14 9.355 9.171 0.312 10.389 o
-5 -1 -13 18.353 17.610 0.547 3.369 o
-5 -1 -12 14.283 14.432 0.450 4.990 o
-5 -1 -11 21.462 21.946 0.671 2.239 o
-5 -1 -10 2.741 2.776 0.100 100.328 o
-5 -1 -9 49.411 49.209 1.478 0.462 o
-5 -1 -8 34.114 34.439 1.051 0.913 o
-5 -1 -7 55.712 54.290 1.575 0.407 o
-5 -1 -6 151.436 155.236 4.508 0.050 o
-5 -1 -5 5.234 5.182 0.192 27.387 o
-5 -1 -4 58.906 61.743 1.799 0.312 o
-5 -1 -3 143.808 138.050 3.832 0.069 o
-5 -1 -2 346.504 361.569 10.182 0.010 o
-5 -1 -1 86.667 87.342 2.522 0.159 o
-4 -14 -10 0.013 -0.063 0.454 4.884 o
-4 -14 -9 0.098 0.120 0.097 107.128 o
-4 -14 -8 0.019 0.155 0.111 82.593 o
-4 -14 -7 0.219 0.144 0.096 109.549 o
-4 -14 -6 0.257 0.247 0.086 137.295 o
-4 -14 -5 0.297 0.320 0.086 135.584 o
-4 -14 -4 0.014 0.189 0.082 150.232 o
-4 -14 -3 0.109 0.187 0.087 133.905 o
-4 -14 -2 0.544 0.463 0.096 109.549 o
-4 -14 -1 0.176 0.197 0.081 154.265 o
-4 -13 -14 0.015 0.116 0.088 130.639 o
-4 -13 -13 0.298 0.237 0.101 98.205 o
-4 -13 -12 0.033 0.138 0.104 93.182 o
-4 -13 -11 0.004 0.208 0.086 137.295 o
-4 -13 -10 0.073 0.073 0.088 130.639 o
-4 -13 -9 0.773 0.716 0.082 150.232 o
-4 -13 -8 0.287 0.248 0.106 89.437 o
-4 -13 -7 0.195 0.210 0.079 160.625 o
-4 -13 -6 0.142 0.201 0.074 184.930 o
-4 -13 -5 0.492 0.524 0.076 174.586 o
-4 -13 -4 0.202 0.291 0.074 182.260 o
-4 -13 -3 0.847 0.775 0.081 152.228 o
-4 -13 -2 0.024 0.097 0.092 120.102 o
-4 -13 -1 0.570 0.524 0.077 172.136 o
-4 -12 -17 0.009 0.268 0.095 112.053 o
-4 -12 -16 0.057 0.041 0.126 63.389 o
-4 -12 -15 0.336 0.508 0.086 135.584 o
-4 -12 -14 0.185 0.266 0.087 133.905 o
-4 -12 -13 0.160 0.209 0.107 87.648 o
-4 -12 -12 0.096 0.307 0.080 158.462 o
-4 -12 -11 0.698 0.688 0.097 107.128 o
-4 -12 -10 0.547 0.422 0.073 187.660 o
-4 -12 -9 0.078 0.260 0.071 199.205 o
-4 -12 -8 0.410 0.373 0.075 177.089 o
-4 -12 -7 0.342 0.314 0.071 199.205 o
-4 -12 -6 0.203 0.358 0.091 122.979 o
-4 -12 -5 1.037 1.092 0.102 96.148 o
-4 -12 -4 0.449 0.316 0.083 146.355 o
-4 -12 -3 1.076 0.945 0.078 165.087 o
-4 -12 -2 0.335 0.328 0.072 193.303 o
-4 -12 -1 2.624 2.676 0.115 76.505 o
-4 -11 -20 0.024 0.093 0.089 127.491 o
-4 -11 -19 0.074 0.018 0.084 144.473 o
-4 -11 -18 0.120 0.246 0.084 144.473 o
-4 -11 -17 0.031 0.090 0.084 144.473 o
-4 -11 -16 0.460 0.608 0.084 142.626 o
-4 -11 -15 0.415 0.445 0.077 169.737 o
-4 -11 -14 0.458 0.482 0.074 182.260 o
-4 -11 -13 0.379 0.555 0.075 179.647 o
-4 -11 -12 1.255 1.131 0.085 139.038 o
-4 -11 -11 0.047 0.100 0.075 177.089 o
-4 -11 -10 0.046 0.199 0.073 190.450 o
-4 -11 -9 1.018 0.995 0.084 142.626 o
-4 -11 -8 0.431 0.416 0.073 190.450 o
-4 -11 -7 1.605 1.465 0.100 101.416 o
-4 -11 -6 0.861 0.911 0.094 113.337 o
-4 -11 -5 0.120 0.079 0.079 160.625 o
-4 -11 -4 0.417 0.419 0.092 120.102 o
-4 -11 -3 3.849 3.667 0.187 28.826 o
-4 -11 -2 1.017 1.152 0.112 81.004 o
-4 -11 -1 1.300 1.369 0.098 105.948 o
-4 -10 -22 0.053 0.052 0.095 110.790 o
-4 -10 -21 0.204 0.223 0.099 102.521 o
-4 -10 -20 0.242 0.208 0.111 82.593 o
-4 -10 -19 0.239 0.412 0.082 148.274 o
-4 -10 -18 0.340 0.533 0.080 158.462 o
-4 -10 -17 0.599 0.547 0.117 73.710 o
-4 -10 -16 0.793 0.860 0.078 165.087 o
-4 -10 -15 0.431 0.433 0.081 154.265 o
-4 -10 -14 1.552 1.669 0.091 121.528 o
-4 -10 -13 0.002 0.027 0.074 182.260 o
-4 -10 -12 0.007 0.067 0.074 182.260 o
-4 -10 -11 1.876 2.026 0.125 64.487 o
-4 -10 -10 1.317 1.024 0.083 146.355 o
-4 -10 -9 2.830 2.717 0.128 61.277 o
-4 -10 -8 2.531 2.507 0.122 67.957 o
-4 -10 -7 3.666 3.545 0.142 50.181 o
-4 -10 -6 0.305 0.472 0.066 229.424 o
-4 -10 -5 5.452 5.326 0.181 30.745 o
-4 -10 -4 1.945 1.958 0.096 109.549 o
-4 -10 -3 1.034 1.023 0.084 144.473 o
-4 -10 -2 3.510 3.464 0.136 54.657 o
-4 -10 -1 0.832 0.907 0.109 85.064 o
-4 -9 -24 0.034 -0.049 0.280 12.886 o
-4 -9 -23 0.040 0.099 0.096 108.328 o
-4 -9 -22 0.411 0.615 0.108 86.774 o
-4 -9 -21 0.715 0.894 0.091 122.979 o
-4 -9 -20 0.153 0.175 0.091 121.528 o
-4 -9 -19 0.344 0.391 0.077 172.136 o
-4 -9 -18 0.749 0.617 0.075 177.089 o
-4 -9 -17 0.186 0.328 0.072 193.303 o
-4 -9 -16 0.349 0.542 0.072 193.303 o
-4 -9 -15 0.628 0.636 0.074 184.930 o
-4 -9 -14 0.310 0.314 0.084 142.626 o
-4 -9 -13 1.450 1.338 0.097 107.128 o
-4 -9 -12 2.765 2.834 0.137 53.379 o
-4 -9 -11 0.152 0.300 0.079 160.625 o
-4 -9 -10 6.269 6.280 0.233 18.599 o
-4 -9 -9 4.274 4.449 0.176 32.660 o
-4 -9 -8 3.239 3.257 0.125 64.487 o
-4 -9 -7 3.187 3.285 0.141 50.953 o
-4 -9 -6 5.921 5.790 0.205 23.911 o
-4 -9 -5 1.057 1.110 0.075 179.647 o
-4 -9 -4 6.245 6.102 0.239 17.607 o
-4 -9 -3 3.830 3.773 0.162 38.566 o
-4 -9 -2 0.472 0.584 0.066 229.424 o
-4 -9 -1 0.481 0.428 0.060 281.710 o
-4 -8 -25 0.274 0.124 0.125 65.047 o
-4 -8 -24 0.148 0.378 0.092 120.102 o
-4 -8 -23 0.984 0.909 0.090 124.456 o
-4 -8 -22 0.074 0.161 0.077 172.136 o
-4 -8 -21 0.207 0.220 0.074 184.930 o
-4 -8 -20 0.222 0.442 0.079 162.833 o
-4 -8 -19 0.513 0.557 0.082 148.274 o
-4 -8 -18 0.239 0.280 0.071 202.258 o
-4 -8 -17 1.238 1.134 0.083 146.355 o
-4 -8 -16 0.216 0.129 0.078 167.388 o
-4 -8 -15 4.776 4.493 0.184 29.850 o
-4 -8 -14 5.076 5.212 0.184 29.675 o
-4 -8 -13 3.149 3.345 0.136 54.657 o
-4 -8 -12 5.523 5.655 0.205 23.911 o
-4 -8 -11 10.453 9.807 0.312 10.354 o
-4 -8 -10 6.447 6.459 0.218 21.161 o
-4 -8 -9 1.498 1.557 0.098 104.787 o
-4 -8 -8 17.890 18.480 0.602 2.787 o
-4 -8 -7 4.568 4.631 0.162 38.566 o
-4 -8 -6 1.942 1.855 0.091 121.528 o
-4 -8 -5 0.873 1.006 0.085 139.038 o
-4 -8 -4 10.499 10.531 0.341 8.690 o
-4 -8 -3 8.918 9.179 0.298 11.391 o
-4 -8 -2 3.645 3.497 0.129 60.260 o
-4 -8 -1 2.880 2.820 0.109 85.064 o
-4 -7 -26 0.056 0.179 0.108 86.774 o
-4 -7 -25 0.670 0.515 0.106 90.352 o
-4 -7 -24 0.032 0.146 0.103 94.156 o
-4 -7 -23 1.233 1.266 0.088 130.639 o
-4 -7 -22 0.169 0.241 0.071 202.258 o
-4 -7 -21 1.666 1.441 0.106 90.352 o
-4 -7 -20 0.891 0.909 0.096 109.549 o
-4 -7 -19 4.049 3.987 0.156 41.558 o
-4 -7 -18 0.234 0.300 0.079 162.833 o
-4 -7 -17 3.199 2.906 0.164 37.558 o
-4 -7 -16 6.814 6.725 0.226 19.677 o
-4 -7 -15 9.455 9.925 0.328 9.359 o
-4 -7 -14 0.196 0.301 0.070 208.578 o
-4 -7 -13 8.764 8.565 0.319 9.937 o
-4 -7 -12 5.950 5.773 0.203 24.551 o
-4 -7 -11 2.425 2.488 0.162 38.566 o
-4 -7 -10 4.184 4.582 0.182 30.382 o
-4 -7 -9 4.691 4.591 0.184 29.675 o
-4 -7 -8 1.691 1.937 0.094 114.644 o
-4 -7 -7 2.112 1.928 0.100 101.416 o
-4 -7 -6 11.359 11.734 0.394 6.513 o
-4 -7 -5 13.879 14.187 0.452 4.943 o
-4 -7 -4 10.974 10.341 0.329 9.297 o
-4 -7 -3 11.962 11.994 0.372 7.290 o
-4 -7 -2 3.101 3.022 0.116 74.394 o
-4 -7 -1 19.087 19.151 0.586 2.938 o
-4 -6 -27 0.123 0.012 0.109 85.064 o
-4 -6 -26 0.392 0.402 0.099 103.645 o
-4 -6 -25 0.928 0.956 0.081 152.228 o
-4 -6 -24 0.356 0.434 0.087 132.257 o
-4 -6 -23 1.858 1.653 0.089 125.960 o
-4 -6 -22 0.901 0.861 0.077 172.136 o
-4 -6 -21 5.219 4.922 0.172 34.109 o
-4 -6 -20 1.193 1.237 0.084 144.473 o
-4 -6 -19 4.462 4.422 0.171 34.324 o
-4 -6 -18 4.286 4.252 0.181 30.745 o
-4 -6 -17 14.693 14.282 0.452 4.943 o
-4 -6 -16 3.211 3.417 0.155 41.847 o
-4 -6 -15 2.785 2.594 0.110 83.404 o
-4 -6 -14 9.993 9.951 0.328 9.389 o
-4 -6 -13 1.486 1.373 0.092 120.102 o
-4 -6 -12 7.130 7.300 0.272 13.664 o
-4 -6 -11 3.175 3.092 0.157 40.989 o
-4 -6 -10 16.701 16.260 0.536 3.506 o
-4 -6 -9 12.673 12.239 0.424 5.604 o
-4 -6 -8 8.486 8.664 0.277 13.138 o
-4 -6 -7 4.813 5.120 0.167 36.352 o
-4 -6 -6 22.364 22.108 0.676 2.207 o
-4 -6 -5 16.372 15.666 0.475 4.462 o
-4 -6 -4 2.010 2.068 0.085 139.038 o
-4 -6 -3 22.754 22.791 0.707 2.019 o
-4 -6 -2 6.636 6.196 0.198 25.630 o
-4 -6 -1 39.975 39.700 1.178 0.727 o
-4 -5 -28 0.584 0.786 0.122 67.957 o
-4 -5 -27 0.298 0.447 0.081 152.228 o
-4 -5 -26 0.681 0.755 0.079 160.625 o
-4 -5 -25 1.436 1.345 0.118 72.370 o
-4 -5 -24 0.734 0.712 0.075 177.089 o
-4 -5 -23 0.915 1.001 0.089 127.491 o
-4 -5 -22 3.040 2.882 0.130 59.268 o
-4 -5 -21 6.314 6.381 0.210 22.820 o
-4 -5 -20 0.459 0.474 0.069 211.850 o
-4 -5 -19 8.941 8.721 0.281 12.787 o
-4 -5 -18 6.900 6.896 0.223 20.251 o
-4 -5 -17 3.157 3.234 0.164 37.558 o
-4 -5 -16 3.519 3.453 0.132 57.825 o
-4 -5 -15 4.577 4.215 0.157 40.989 o
-4 -5 -14 27.008 27.568 0.938 1.146 o
-4 -5 -13 3.089 2.803 0.109 85.064 o
-4 -5 -12 20.930 21.131 0.664 2.291 o
-4 -5 -11 7.892 8.001 0.257 15.255 o
-4 -5 -10 42.786 44.282 1.354 0.550 o
-4 -5 -9 4.196 4.264 0.157 40.708 o
-4 -5 -8 32.780 32.094 1.232 0.664 o
-4 -5 -7 8.174 7.582 0.294 11.643 o
-4 -5 -6 11.256 11.304 0.355 7.992 o
-4 -5 -5 3.346 3.269 0.111 82.593 o
-4 -5 -4 9.960 10.151 0.308 10.646 o
-4 -5 -3 18.686 18.821 0.583 2.965 o
-4 -5 -2 13.757 13.618 0.438 5.251 o
-4 -5 -1 35.300 34.941 1.124 0.798 o
-4 -4 -29 0.250 0.418 0.094 114.644 o
-4 -4 -28 0.347 0.461 0.098 105.948 o
-4 -4 -27 1.289 1.103 0.108 85.912 o
-4 -4 -26 0.314 0.440 0.104 93.182 o
-4 -4 -25 0.332 0.351 0.073 190.450 o
-4 -4 -24 2.627 2.609 0.185 29.503 o
-4 -4 -23 6.385 6.093 0.209 23.175 o
-4 -4 -22 0.420 0.455 0.073 190.450 o
-4 -4 -21 1.388 1.692 0.095 112.053 o
-4 -4 -20 5.969 5.886 0.201 25.082 o
-4 -4 -19 2.363 2.341 0.100 101.416 o
-4 -4 -18 0.347 0.363 0.065 237.071 o
-4 -4 -17 9.808 10.156 0.355 7.992 o
-4 -4 -16 22.065 21.953 0.725 1.919 o
-4 -4 -15 7.288 7.252 0.249 16.332 o
-4 -4 -14 1.184 1.178 0.068 218.629 o
-4 -4 -13 8.002 8.168 0.254 15.646 o
-4 -4 -12 33.408 35.002 1.043 0.928 o
-4 -4 -11 8.589 8.251 0.276 13.241 o
-4 -4 -10 12.652 12.598 0.396 6.443 o
-4 -4 -9 2.180 2.246 0.101 99.258 o
-4 -4 -8 1.719 1.726 0.068 218.629 o
-4 -4 -7 19.178 19.208 0.578 3.015 o
-4 -4 -6 35.913 35.742 1.062 0.893 o
-4 -4 -5 43.419 42.889 1.157 0.754 o
-4 -4 -4 28.186 26.556 0.811 1.532 o
-4 -4 -3 55.584 56.731 1.722 0.340 o
-4 -4 -2 45.551 45.105 1.320 0.579 o
-4 -4 -1 67.724 66.542 1.991 0.254 o
-4 -3 -29 0.452 0.519 0.102 97.168 o
-4 -3 -28 0.250 0.245 0.095 112.053 o
-4 -3 -27 0.888 0.843 0.086 137.295 o
-4 -3 -26 0.256 0.212 0.072 193.303 o
-4 -3 -25 3.561 3.502 0.160 39.349 o
-4 -3 -24 0.157 0.144 0.070 205.382 o
-4 -3 -23 0.921 0.887 0.091 122.979 o
-4 -3 -22 0.896 0.758 0.075 179.647 o
-4 -3 -21 3.534 3.585 0.136 54.657 o
-4 -3 -20 3.826 3.564 0.137 53.800 o
-4 -3 -19 3.763 4.015 0.153 43.339 o
-4 -3 -18 6.775 6.875 0.234 18.343 o
-4 -3 -17 4.695 4.993 0.181 30.745 o
-4 -3 -16 4.070 3.854 0.154 42.733 o
-4 -3 -15 13.795 13.998 0.467 4.628 o
-4 -3 -14 8.405 8.952 0.278 13.087 o
-4 -3 -13 29.411 29.409 0.924 1.181 o
-4 -3 -12 11.823 11.620 0.356 7.944 o
-4 -3 -11 17.309 17.318 0.578 3.015 o
-4 -3 -10 7.034 6.943 0.223 20.251 o
-4 -3 -9 38.591 39.718 1.170 0.737 o
-4 -3 -8 33.757 33.057 1.084 0.858 o
-4 -3 -7 36.746 35.898 1.094 0.842 o
-4 -3 -6 50.011 48.349 1.614 0.387 o
-4 -3 -5 173.038 173.005 5.360 0.035 o
-4 -3 -4 18.115 17.530 0.611 2.704 o
-4 -3 -3 51.739 50.997 1.529 0.432 o
-4 -3 -2 16.881 16.314 0.488 4.238 o
-4 -3 -1 81.217 81.163 2.362 0.181 o
-4 -2 -30 0.370 0.348 0.089 125.960 o
-4 -2 -29 0.386 0.364 0.111 81.793 o
-4 -2 -28 0.071 0.151 0.078 165.087 o
-4 -2 -27 0.369 0.414 0.079 162.833 o
-4 -2 -26 0.179 0.160 0.080 156.342 o
-4 -2 -25 0.190 0.204 0.080 156.342 o
-4 -2 -24 0.390 0.405 0.072 193.303 o
-4 -2 -23 2.100 1.994 0.098 105.948 o
-4 -2 -22 2.388 2.393 0.117 73.710 o
-4 -2 -21 2.489 2.556 0.127 62.320 o
-4 -2 -20 3.684 3.656 0.140 51.345 o
-4 -2 -19 1.968 2.009 0.095 110.790 o
-4 -2 -18 6.470 6.609 0.236 18.175 o
-4 -2 -17 9.388 9.567 0.308 10.646 o
-4 -2 -16 8.983 9.064 0.292 11.815 o
-4 -2 -15 2.936 2.882 0.112 81.004 o
-4 -2 -14 5.217 5.271 0.175 32.861 o
-4 -2 -13 1.523 1.645 0.081 152.228 o
-4 -2 -12 3.083 3.045 0.109 84.228 o
-4 -2 -11 20.007 20.787 0.624 2.593 o
-4 -2 -10 88.540 88.214 2.593 0.150 o
-4 -2 -9 23.866 23.978 0.746 1.812 o
-4 -2 -8 66.035 67.661 2.093 0.230 o
-4 -2 -7 62.916 65.088 1.920 0.274 o
-4 -2 -6 80.950 79.300 2.355 0.182 o
-4 -2 -5 37.234 35.294 1.010 0.989 o
-4 -2 -4 6.357 6.374 0.191 27.542 o
-4 -2 -3 109.157 112.140 3.245 0.096 o
-4 -2 -2 104.251 104.909 3.001 0.112 o
-4 -2 -1 76.386 80.096 2.347 0.183 o
-4 -1 -30 0.059 0.079 0.085 140.815 o
-4 -1 -29 0.009 0.257 0.084 142.626 o
-4 -1 -28 0.185 0.309 0.081 152.228 o
-4 -1 -27 0.069 0.111 0.082 148.274 o
-4 -1 -26 0.640 0.784 0.078 167.388 o
-4 -1 -25 0.104 0.180 0.072 193.303 o
-4 -1 -24 0.143 0.182 0.079 160.625 o
-4 -1 -23 1.265 1.225 0.113 78.706 o
-4 -1 -22 2.231 2.158 0.115 75.792 o
-4 -1 -21 2.032 1.985 0.132 58.300 o
-4 -1 -20 1.554 1.595 0.082 148.274 o
-4 -1 -19 6.267 5.991 0.222 20.448 o
-4 -1 -18 12.523 12.686 0.397 6.390 o
-4 -1 -17 7.638 7.213 0.240 17.528 o
-4 -1 -16 5.826 5.620 0.187 28.826 o
-4 -1 -15 0.785 0.924 0.060 276.702 o
-4 -1 -14 19.515 19.131 0.581 2.992 o
-4 -1 -13 11.086 11.123 0.344 8.527 o
-4 -1 -12 74.915 73.279 2.286 0.193 o
-4 -1 -11 28.939 28.034 0.954 1.109 o
-4 -1 -10 9.274 8.915 0.303 10.950 o
-4 -1 -9 1.358 1.264 0.051 384.593 o
-4 -1 -8 40.464 40.403 1.179 0.726 o
-4 -1 -7 49.958 50.040 1.459 0.474 o
-4 -1 -6 95.870 97.225 2.952 0.116 o
-4 -1 -5 60.657 61.194 1.816 0.306 o
-4 -1 -4 90.305 91.005 2.822 0.127 o
-4 -1 -3 16.849 16.728 0.519 3.751 o
-4 -1 -2 22.405 22.707 0.631 2.536 o
-4 -1 -1 194.506 201.042 5.547 0.033 o
-3 -15 -3 0.026 0.172 0.112 80.227 o
-3 -15 -2 0.168 0.360 0.154 42.434 o
-3 -15 -1 0.074 -0.012 0.302 11.068 o
-3 -14 -11 0.007 0.128 0.095 110.790 o
-3 -14 -10 0.097 -0.005 0.303 10.950 o
-3 -14 -9 0.151 0.070 0.089 127.491 o
-3 -14 -8 0.043 0.196 0.095 110.790 o
-3 -14 -7 0.020 0.129 0.082 148.274 o
-3 -14 -6 0.137 0.287 0.096 109.549 o
-3 -14 -5 0.308 0.329 0.119 71.066 o
-3 -14 -4 0.296 0.343 0.112 80.227 o
-3 -14 -3 0.079 0.101 0.080 158.462 o
-3 -14 -2 0.157 0.120 0.078 167.388 o
-3 -14 -1 0.151 0.135 0.077 169.737 o
-3 -13 -15 0.073 0.036 0.088 130.639 o
-3 -13 -14 0.116 0.136 0.092 120.102 o
-3 -13 -13 0.111 0.206 0.089 127.491 o
-3 -13 -12 0.096 0.059 0.086 135.584 o
-3 -13 -11 0.721 0.749 0.086 135.584 o
-3 -13 -10 0.138 0.113 0.093 115.973 o
-3 -13 -9 0.200 0.321 0.105 92.224 o
-3 -13 -8 0.145 0.294 0.082 148.274 o
-3 -13 -7 1.199 1.140 0.086 137.295 o
-3 -13 -6 0.029 0.125 0.074 184.930 o
-3 -13 -5 0.339 0.473 0.079 162.833 o
-3 -13 -4 0.388 0.434 0.078 165.087 o
-3 -13 -3 0.493 0.459 0.084 142.626 o
-3 -13 -2 0.369 0.436 0.092 118.702 o
-3 -13 -1 0.233 0.239 0.077 172.136 o
-3 -12 -18 0.154 0.143 0.088 129.051 o
-3 -12 -17 0.095 0.151 0.107 88.536 o
-3 -12 -16 0.156 0.339 0.106 89.437 o
-3 -12 -15 0.479 0.668 0.087 132.257 o
-3 -12 -14 0.051 0.074 0.082 148.274 o
-3 -12 -13 0.187 0.384 0.094 113.337 o
-3 -12 -12 0.692 0.746 0.087 132.257 o
-3 -12 -11 0.576 0.655 0.091 122.979 o
-3 -12 -10 0.073 0.171 0.074 182.260 o
-3 -12 -9 0.298 0.275 0.071 202.258 o
-3 -12 -8 0.375 0.353 0.072 196.221 o
-3 -12 -7 0.344 0.394 0.071 199.205 o
-3 -12 -6 0.332 0.396 0.073 190.450 o
-3 -12 -5 0.299 0.394 0.081 154.265 o
-3 -12 -4 0.211 0.299 0.071 199.205 o
-3 -12 -3 0.720 0.761 0.075 177.089 o
-3 -12 -2 0.208 0.313 0.092 120.102 o
-3 -12 -1 0.662 0.646 0.079 160.625 o
-3 -11 -21 0.132 0.173 0.099 103.645 o
-3 -11 -20 0.279 0.240 0.108 86.774 o
-3 -11 -19 0.228 0.429 0.109 85.064 o
-3 -11 -18 0.411 0.393 0.114 77.228 o
-3 -11 -17 0.594 0.521 0.113 78.706 o
-3 -11 -16 0.666 0.687 0.087 132.257 o
-3 -11 -15 0.281 0.472 0.076 174.586 o
-3 -11 -14 1.282 1.110 0.082 148.274 o
-3 -11 -13 0.812 0.745 0.098 104.787 o
-3 -11 -12 0.121 0.301 0.070 205.382 o
-3 -11 -11 0.842 0.905 0.093 117.325 o
-3 -11 -10 0.748 0.820 0.079 160.625 o
-3 -11 -9 0.340 0.447 0.077 172.136 o
-3 -11 -8 0.916 0.921 0.081 152.228 o
-3 -11 -7 0.660 0.799 0.093 115.973 o
-3 -11 -6 1.381 1.226 0.089 125.960 o
-3 -11 -5 1.974 2.052 0.122 67.359 o
-3 -11 -4 2.047 1.943 0.121 68.562 o
-3 -11 -3 0.230 0.316 0.087 132.257 o
-3 -11 -2 0.721 0.763 0.086 137.295 o
-3 -11 -1 1.948 1.907 0.128 61.795 o
-3 -10 -23 0.002 -0.061 0.350 8.241 o
-3 -10 -22 0.164 0.173 0.088 130.639 o
-3 -10 -21 0.349 0.445 0.089 127.491 o
-3 -10 -20 0.267 0.440 0.089 125.960 o
-3 -10 -19 0.047 0.259 0.081 154.265 o
-3 -10 -18 0.881 0.867 0.080 158.462 o
-3 -10 -17 0.824 0.891 0.079 162.833 o
-3 -10 -16 1.139 1.145 0.094 113.337 o
-3 -10 -15 0.038 0.061 0.091 122.979 o
-3 -10 -14 0.184 0.431 0.071 199.205 o
-3 -10 -13 1.175 1.252 0.080 156.342 o
-3 -10 -12 2.007 2.021 0.102 96.148 o
-3 -10 -11 0.263 0.454 0.087 133.905 o
-3 -10 -10 2.376 2.227 0.113 79.461 o
-3 -10 -9 0.729 0.667 0.081 152.228 o
-3 -10 -8 0.116 0.239 0.067 225.738 o
-3 -10 -7 0.799 0.818 0.105 92.224 o
-3 -10 -6 6.301 6.299 0.220 20.749 o
-3 -10 -5 0.499 0.425 0.065 237.071 o
-3 -10 -4 1.523 1.595 0.088 130.639 o
-3 -10 -3 0.237 0.326 0.064 249.278 o
-3 -10 -2 1.918 2.094 0.101 98.205 o
-3 -10 -1 0.249 0.292 0.063 253.558 o
-3 -9 -24 0.168 0.085 0.094 113.337 o
-3 -9 -23 0.316 0.483 0.087 133.905 o
-3 -9 -22 0.030 0.129 0.089 127.491 o
-3 -9 -21 0.035 0.108 0.086 135.584 o
-3 -9 -20 0.478 0.421 0.074 184.930 o
-3 -9 -19 0.682 0.647 0.075 177.089 o
-3 -9 -18 0.117 0.203 0.069 211.850 o
-3 -9 -17 0.499 0.533 0.071 202.258 o
-3 -9 -16 0.039 0.029 0.067 225.738 o
-3 -9 -15 0.118 0.184 0.073 190.450 o
-3 -9 -14 3.036 3.051 0.139 52.145 o
-3 -9 -13 0.779 0.388 0.085 140.815 o
-3 -9 -12 5.569 5.441 0.201 25.082 o
-3 -9 -11 1.858 1.887 0.095 110.790 o
-3 -9 -10 7.363 7.104 0.270 13.828 o
-3 -9 -9 0.034 0.071 0.078 167.388 o
-3 -9 -8 14.206 13.764 0.450 4.990 o
-3 -9 -7 1.462 1.346 0.105 91.281 o
-3 -9 -6 6.007 5.993 0.208 23.296 o
-3 -9 -5 4.331 4.074 0.156 41.558 o
-3 -9 -4 2.915 3.188 0.133 57.356 o
-3 -9 -3 1.088 1.200 0.072 196.221 o
-3 -9 -2 12.269 12.213 0.388 6.696 o
-3 -9 -1 8.487 8.230 0.287 12.264 o
-3 -8 -26 0.087 0.235 0.135 55.535 o
-3 -8 -25 0.158 0.076 0.089 125.960 o
-3 -8 -24 0.200 0.273 0.088 130.639 o
-3 -8 -23 0.043 0.096 0.088 129.051 o
-3 -8 -22 0.140 0.230 0.078 167.388 o
-3 -8 -21 0.385 0.312 0.073 190.450 o
-3 -8 -20 0.041 0.212 0.070 208.578 o
-3 -8 -19 0.037 0.108 0.067 222.141 o
-3 -8 -18 0.196 0.243 0.067 225.738 o
-3 -8 -17 1.256 1.274 0.095 110.790 o
-3 -8 -16 2.220 2.304 0.119 71.066 o
-3 -8 -15 0.013 0.067 0.066 229.424 o
-3 -8 -14 2.753 2.636 0.108 86.774 o
-3 -8 -13 5.719 6.054 0.216 21.694 o
-3 -8 -12 10.547 10.674 0.392 6.549 o
-3 -8 -11 0.201 0.367 0.072 196.221 o
-3 -8 -10 13.926 13.974 0.439 5.238 o
-3 -8 -9 5.954 6.305 0.212 22.473 o
-3 -8 -8 6.224 6.476 0.214 22.023 o
-3 -8 -7 3.443 3.592 0.140 51.743 o
-3 -8 -6 11.447 11.139 0.363 7.663 o
-3 -8 -5 1.279 1.336 0.072 196.221 o
-3 -8 -4 10.556 10.715 0.352 8.140 o
-3 -8 -3 11.420 11.705 0.392 6.567 o
-3 -8 -2 1.415 1.642 0.083 146.355 o
-3 -8 -1 2.828 3.112 0.123 66.770 o
-3 -7 -27 0.052 0.040 0.113 78.706 o
-3 -7 -26 0.312 0.479 0.086 135.584 o
-3 -7 -25 0.285 0.385 0.133 56.892 o
-3 -7 -24 0.122 0.250 0.095 112.053 o
-3 -7 -23 0.726 0.742 0.094 114.644 o
-3 -7 -22 0.106 0.011 0.088 129.051 o
-3 -7 -21 1.570 1.515 0.094 113.337 o
-3 -7 -20 0.645 0.590 0.074 184.930 o
-3 -7 -19 3.438 3.201 0.140 51.345 o
-3 -7 -18 2.152 2.083 0.115 76.505 o
-3 -7 -17 5.644 5.599 0.188 28.661 o
-3 -7 -16 2.302 2.391 0.102 97.168 o
-3 -7 -15 4.589 4.349 0.183 30.026 o
-3 -7 -14 9.203 9.041 0.307 10.721 o
-3 -7 -13 3.730 3.698 0.155 42.139 o
-3 -7 -12 3.504 3.349 0.136 54.226 o
-3 -7 -11 1.135 1.176 0.088 130.639 o
-3 -7 -10 1.437 1.449 0.079 160.625 o
-3 -7 -9 3.179 3.442 0.134 56.435 o
-3 -7 -8 8.940 9.018 0.293 11.772 o
-3 -7 -7 5.132 5.306 0.195 26.487 o
-3 -7 -6 8.771 8.691 0.275 13.345 o
-3 -7 -5 40.002 39.725 1.212 0.686 o
-3 -7 -4 10.687 10.462 0.328 9.359 o
-3 -7 -3 3.403 3.452 0.118 72.370 o
-3 -7 -2 10.305 9.818 0.302 11.029 o
-3 -7 -1 44.763 44.166 1.374 0.534 o
-3 -6 -28 0.386 0.329 0.096 109.549 o
-3 -6 -27 0.366 0.261 0.084 144.473 o
-3 -6 -26 0.180 0.266 0.078 167.388 o
-3 -6 -25 0.134 0.262 0.078 167.388 o
-3 -6 -24 0.262 0.301 0.084 144.473 o
-3 -6 -23 2.048 2.060 0.101 98.205 o
-3 -6 -22 2.364 2.459 0.107 88.536 o
-3 -6 -21 1.712 1.717 0.120 69.797 o
-3 -6 -20 0.684 0.719 0.083 146.355 o
-3 -6 -19 7.435 7.597 0.247 16.547 o
-3 -6 -18 9.242 9.361 0.316 10.073 o
-3 -6 -17 3.131 2.862 0.131 58.781 o
-3 -6 -16 6.488 6.303 0.268 14.052 o
-3 -6 -15 5.481 5.756 0.195 26.634 o
-3 -6 -14 8.208 8.662 0.286 12.357 o
-3 -6 -13 1.937 1.904 0.118 73.036 o
-3 -6 -12 6.378 6.185 0.238 17.847 o
-3 -6 -11 1.322 1.407 0.079 160.625 o
-3 -6 -10 0.180 0.201 0.049 428.513 o
-3 -6 -9 10.243 10.036 0.337 8.857 o
-3 -6 -8 5.248 5.378 0.180 31.301 o
-3 -6 -7 26.569 27.011 0.905 1.233 o
-3 -6 -6 5.973 5.744 0.222 20.448 o
-3 -6 -5 7.049 6.942 0.223 20.349 o
-3 -6 -4 10.814 10.378 0.320 9.870 o
-3 -6 -3 80.519 79.275 2.338 0.185 o
-3 -6 -2 12.843 12.284 0.408 6.073 o
-3 -6 -1 32.789 32.079 0.963 1.087 o
-3 -5 -29 0.159 0.106 0.122 67.957 o
-3 -5 -28 0.056 0.209 0.093 117.325 o
-3 -5 -27 0.103 0.219 0.080 156.342 o
-3 -5 -26 0.711 0.609 0.086 137.295 o
-3 -5 -25 0.879 0.782 0.085 140.815 o
-3 -5 -24 2.406 2.294 0.103 94.156 o
-3 -5 -23 0.858 0.813 0.080 156.342 o
-3 -5 -22 0.296 0.313 0.084 142.626 o
-3 -5 -21 1.366 1.294 0.087 133.905 o
-3 -5 -20 11.038 11.015 0.365 7.551 o
-3 -5 -19 1.495 1.597 0.083 146.355 o
-3 -5 -18 2.086 2.066 0.091 121.528 o
-3 -5 -17 3.230 3.167 0.149 45.565 o
-3 -5 -16 13.349 13.479 0.446 5.063 o
-3 -5 -15 3.184 3.302 0.136 54.657 o
-3 -5 -14 9.347 8.893 0.300 11.228 o
-3 -5 -13 9.397 9.002 0.286 12.310 o
-3 -5 -12 8.983 8.688 0.277 13.138 o
-3 -5 -11 14.498 14.852 0.464 4.693 o
-3 -5 -10 15.165 14.585 0.496 4.092 o
-3 -5 -9 6.673 6.296 0.222 20.548 o
-3 -5 -8 5.373 5.061 0.178 31.873 o
-3 -5 -7 28.038 27.845 0.880 1.303 o
-3 -5 -6 28.236 27.343 0.873 1.324 o
-3 -5 -5 31.974 31.311 0.921 1.188 o
-3 -5 -4 0.254 0.468 0.039 669.551 o
-3 -5 -3 4.621 4.372 0.139 52.551 o
-3 -5 -2 25.134 23.270 0.705 2.029 o
-3 -5 -1 115.369 115.060 3.401 0.087 o
-3 -4 -29 0.211 0.175 0.089 127.491 o
-3 -4 -28 0.590 0.769 0.082 148.274 o
-3 -4 -27 0.124 0.154 0.093 115.973 o
-3 -4 -26 0.841 0.886 0.079 162.833 o
-3 -4 -25 2.124 2.182 0.123 66.188 o
-3 -4 -24 1.632 1.525 0.111 82.593 o
-3 -4 -23 0.023 0.070 0.072 193.303 o
-3 -4 -22 4.665 4.531 0.167 36.118 o
-3 -4 -21 4.292 4.262 0.165 36.828 o
-3 -4 -20 1.251 1.372 0.077 169.737 o
-3 -4 -19 3.608 3.997 0.148 45.897 o
-3 -4 -18 6.171 6.127 0.221 20.648 o
-3 -4 -17 0.493 0.551 0.067 222.141 o
-3 -4 -16 3.695 3.892 0.153 43.034 o
-3 -4 -15 18.800 18.936 0.593 2.869 o
-3 -4 -14 8.064 8.143 0.254 15.646 o
-3 -4 -13 4.028 4.224 0.139 52.551 o
-3 -4 -12 13.675 13.705 0.422 5.661 o
-3 -4 -11 14.543 14.838 0.472 4.523 o
-3 -4 -10 4.830 4.750 0.156 41.272 o
-3 -4 -9 9.757 10.105 0.311 10.425 o
-3 -4 -8 49.187 47.697 1.389 0.523 o
-3 -4 -7 26.220 25.299 0.762 1.738 o
-3 -4 -6 3.812 3.859 0.145 47.967 o
-3 -4 -5 53.795 53.136 1.545 0.422 o
-3 -4 -4 84.098 80.233 2.368 0.180 o
-3 -4 -3 274.587 265.820 7.783 0.017 o
-3 -4 -2 8.609 8.869 0.275 13.345 o
-3 -4 -1 157.925 154.456 4.643 0.047 o
-3 -3 -30 0.082 0.017 0.093 117.325 o
-3 -3 -29 0.246 0.410 0.091 122.979 o
-3 -3 -28 0.167 0.213 0.080 156.342 o
-3 -3 -27 1.095 0.986 0.080 156.342 o
-3 -3 -26 0.848 0.886 0.079 162.833 o
-3 -3 -25 0.348 0.386 0.079 162.833 o
-3 -3 -24 0.557 0.594 0.078 167.388 o
-3 -3 -23 3.889 3.779 0.191 27.542 o
-3 -3 -22 0.802 0.854 0.078 165.087 o
-3 -3 -21 0.103 0.176 0.064 249.278 o
-3 -3 -20 0.838 0.812 0.080 156.342 o
-3 -3 -19 3.140 3.150 0.128 61.795 o
-3 -3 -18 0.133 0.143 0.059 292.143 o
-3 -3 -17 2.274 2.492 0.098 104.787 o
-3 -3 -16 0.279 0.224 0.052 368.897 o
-3 -3 -15 1.380 1.326 0.071 202.258 o
-3 -3 -14 3.459 3.505 0.128 61.795 o
-3 -3 -13 6.596 7.089 0.228 19.398 o
-3 -3 -12 12.217 11.827 0.361 7.755 o
-3 -3 -11 43.313 42.800 1.282 0.613 o
-3 -3 -10 5.693 5.750 0.217 21.478 o
-3 -3 -9 21.004 20.710 0.609 2.718 o
-3 -3 -8 26.311 27.099 0.834 1.448 o
-3 -3 -7 184.599 181.602 5.529 0.033 o
-3 -3 -6 2.098 1.928 0.072 193.303 o
-3 -3 -5 140.701 134.290 4.237 0.056 o
-3 -3 -4 12.811 12.328 0.375 7.165 o
-3 -3 -3 141.845 139.143 4.106 0.060 o
-3 -3 -2 10.618 10.322 0.304 10.912 o
-3 -3 -1 165.389 171.719 4.955 0.041 o
-3 -2 -30 0.550 0.706 0.094 114.644 o
-3 -2 -29 0.281 0.390 0.080 158.462 o
-3 -2 -28 0.247 0.309 0.090 124.456 o
-3 -2 -27 0.233 0.274 0.078 165.087 o
-3 -2 -26 1.342 1.331 0.085 139.038 o
-3 -2 -25 1.107 1.075 0.088 129.051 o
-3 -2 -24 0.185 0.300 0.074 182.260 o
-3 -2 -23 0.518 0.406 0.075 179.647 o
-3 -2 -22 1.329 1.275 0.082 150.232 o
-3 -2 -21 6.551 6.692 0.228 19.398 o
-3 -2 -20 0.415 0.398 0.069 211.850 o
-3 -2 -19 6.323 6.437 0.227 19.583 o
-3 -2 -18 0.741 0.775 0.075 177.089 o
-3 -2 -17 3.857 4.044 0.143 49.426 o
-3 -2 -16 1.520 1.563 0.093 115.973 o
-3 -2 -15 6.722 6.600 0.257 15.255 o
-3 -2 -14 16.216 16.532 0.509 3.887 o
-3 -2 -13 18.997 18.554 0.567 3.142 o
-3 -2 -12 40.032 40.547 1.214 0.684 o
-3 -2 -11 13.572 13.262 0.409 6.041 o
-3 -2 -10 126.693 127.371 3.723 0.073 o
-3 -2 -9 185.869 187.762 5.516 0.033 o
-3 -2 -8 69.999 72.985 2.157 0.217 o
-3 -2 -7 86.974 87.465 2.601 0.149 o
-3 -2 -6 59.536 62.429 1.865 0.290 o
-3 -2 -5 199.782 199.430 5.889 0.029 o
-3 -2 -4 46.512 45.986 1.639 0.375 o
-3 -2 -3 345.433 349.654 9.977 0.010 o
-3 -2 -2 329.055 330.669 9.498 0.011 o
-3 -2 -1 103.283 109.010 3.117 0.104 o
-3 -1 -30 0.024 0.170 0.109 85.064 o
-3 -1 -29 0.249 0.240 0.079 162.833 o
-3 -1 -28 1.153 0.920 0.085 140.815 o
-3 -1 -27 0.150 0.093 0.072 193.303 o
-3 -1 -26 0.758 0.832 0.077 169.737 o
-3 -1 -25 1.865 1.802 0.100 100.328 o
-3 -1 -24 0.951 0.958 0.081 152.228 o
-3 -1 -23 0.632 0.691 0.074 182.260 o
-3 -1 -22 2.377 2.194 0.120 70.428 o
-3 -1 -21 4.390 4.524 0.181 30.745 o
-3 -1 -20 1.352 1.367 0.101 99.258 o
-3 -1 -19 7.906 8.155 0.326 9.483 o
-3 -1 -18 9.990 9.977 0.345 8.474 o
-3 -1 -17 7.305 7.766 0.248 16.403 o
-3 -1 -16 2.173 2.088 0.084 144.473 o
-3 -1 -15 15.678 15.755 0.480 4.372 o
-3 -1 -14 51.394 52.198 1.582 0.403 o
-3 -1 -13 21.340 21.340 0.645 2.427 o
-3 -1 -12 17.689 17.797 0.590 2.895 o
-3 -1 -11 10.035 10.016 0.319 9.937 o
-3 -1 -10 55.301 55.682 1.656 0.368 o
-3 -1 -9 18.322 18.213 0.547 3.369 o
-3 -1 -8 181.726 183.991 5.441 0.034 o
-3 -1 -7 3.153 3.111 0.099 103.645 o
-3 -1 -6 99.871 99.847 2.983 0.113 o
-3 -1 -5 22.491 21.903 0.666 2.272 o
-3 -1 -4 78.406 81.808 2.382 0.178 o
-3 -1 -3 79.692 81.106 2.493 0.162 o
-3 -1 -2 193.614 197.010 5.626 0.032 o
-3 -1 -1 254.708 266.763 7.802 0.017 o
-2 -15 -5 0.102 0.211 0.091 121.528 o
-2 -15 -4 0.013 0.048 0.095 112.053 o
-2 -15 -3 0.070 0.222 0.101 98.205 o
-2 -15 -2 0.058 0.105 0.137 53.800 o
-2 -15 -1 0.099 0.139 0.098 104.787 o
-2 -14 -12 0.019 0.178 0.087 133.905 o
-2 -14 -11 0.046 0.165 0.087 133.905 o
-2 -14 -10 0.144 0.050 0.118 72.370 o
-2 -14 -9 0.150 0.249 0.098 105.948 o
-2 -14 -8 0.054 0.230 0.084 144.473 o
-2 -14 -7 0.203 0.239 0.083 146.355 o
-2 -14 -6 0.005 0.101 0.079 162.833 o
-2 -14 -5 0.122 0.257 0.080 156.342 o
-2 -14 -4 0.051 0.176 0.092 118.702 o
-2 -14 -3 0.358 0.423 0.102 97.168 o
-2 -14 -2 0.230 0.298 0.099 103.645 o
-2 -14 -1 0.260 0.259 0.086 135.584 o
-2 -13 -16 0.135 0.240 0.092 120.102 o
-2 -13 -15 0.163 0.237 0.088 129.051 o
-2 -13 -14 0.361 0.430 0.086 135.584 o
-2 -13 -13 0.016 0.186 0.085 140.815 o
-2 -13 -12 0.139 0.318 0.115 76.505 o
-2 -13 -11 0.175 0.137 0.084 142.626 o
-2 -13 -10 0.092 0.301 0.093 117.325 o
-2 -13 -9 0.135 0.212 0.083 146.355 o
-2 -13 -8 0.073 0.173 0.093 115.973 o
-2 -13 -7 0.022 0.221 0.080 158.462 o
-2 -13 -6 0.292 0.289 0.081 152.228 o
-2 -13 -5 0.483 0.510 0.076 174.586 o
-2 -13 -4 0.137 0.285 0.073 187.660 o
-2 -13 -3 0.159 0.201 0.078 165.087 o
-2 -13 -2 0.372 0.326 0.094 114.644 o
-2 -13 -1 0.518 0.673 0.091 122.979 o
-2 -12 -19 0.061 0.121 0.116 74.394 o
-2 -12 -18 0.005 0.088 0.106 89.437 o
-2 -12 -17 0.015 0.075 0.093 117.325 o
-2 -12 -16 1.282 1.111 0.140 51.345 o
-2 -12 -15 0.113 0.197 0.090 124.456 o
-2 -12 -14 0.025 -0.011 0.296 11.474 o
-2 -12 -13 0.291 0.404 0.078 167.388 o
-2 -12 -12 0.198 0.287 0.071 199.205 o
-2 -12 -11 0.003 0.083 0.071 202.258 o
-2 -12 -10 0.245 0.213 0.071 202.258 o
-2 -12 -9 0.726 0.815 0.075 177.089 o
-2 -12 -8 0.740 0.584 0.128 61.795 o
-2 -12 -7 0.171 0.289 0.070 208.578 o
-2 -12 -6 0.978 1.048 0.078 165.087 o
-2 -12 -5 0.178 0.188 0.071 199.205 o
-2 -12 -4 0.857 0.652 0.077 172.136 o
-2 -12 -3 0.311 0.337 0.080 158.462 o
-2 -12 -2 2.357 2.453 0.113 78.706 o
-2 -12 -1 0.067 0.018 0.076 174.586 o
-2 -11 -21 0.250 0.218 0.141 50.565 o
-2 -11 -20 0.298 0.344 0.097 107.128 o
-2 -11 -19 0.146 0.250 0.123 66.770 o
-2 -11 -18 0.956 1.019 0.092 118.702 o
-2 -11 -17 0.624 0.568 0.083 146.355 o
-2 -11 -16 0.048 0.113 0.072 193.303 o
-2 -11 -15 0.366 0.397 0.077 172.136 o
-2 -11 -14 0.285 0.478 0.085 140.815 o
-2 -11 -13 0.584 0.496 0.079 160.625 o
-2 -11 -12 1.392 1.401 0.086 135.584 o
-2 -11 -11 0.550 0.688 0.086 135.584 o
-2 -11 -10 0.235 0.316 0.072 193.303 o
-2 -11 -9 0.226 0.239 0.074 182.260 o
-2 -11 -8 2.522 2.403 0.130 59.761 o
-2 -11 -7 0.590 0.680 0.088 130.639 o
-2 -11 -6 0.133 0.198 0.075 177.089 o
-2 -11 -5 0.138 0.146 0.072 196.221 o
-2 -11 -4 1.304 1.384 0.091 121.528 o
-2 -11 -3 0.709 0.618 0.079 162.833 o
-2 -11 -2 1.950 2.012 0.106 90.352 o
-2 -11 -1 0.338 0.466 0.070 205.382 o
-2 -10 -23 0.141 0.316 0.121 69.175 o
-2 -10 -22 0.518 0.445 0.091 122.979 o
-2 -10 -21 0.706 0.691 0.089 127.491 o
-2 -10 -20 0.061 0.106 0.093 115.973 o
-2 -10 -19 0.371 0.389 0.078 165.087 o
-2 -10 -18 0.256 0.183 0.075 179.647 o
-2 -10 -17 0.775 0.794 0.075 177.089 o
-2 -10 -16 0.207 0.145 0.070 208.578 o
-2 -10 -15 1.148 1.099 0.080 156.342 o
-2 -10 -14 3.547 3.585 0.139 52.551 o
-2 -10 -13 0.228 0.173 0.105 91.281 o
-2 -10 -12 0.147 0.219 0.086 137.295 o
-2 -10 -11 2.641 2.426 0.189 28.334 o
-2 -10 -10 5.021 4.542 0.170 34.760 o
-2 -10 -9 0.510 0.474 0.069 211.850 o
-2 -10 -8 0.646 0.802 0.073 187.660 o
-2 -10 -7 4.552 4.062 0.155 42.139 o
-2 -10 -6 0.716 0.823 0.075 179.647 o
-2 -10 -5 0.848 0.886 0.072 196.221 o
-2 -10 -4 1.589 1.729 0.089 125.960 o
-2 -10 -3 3.947 3.736 0.155 41.847 o
-2 -10 -2 6.048 6.006 0.231 18.860 o
-2 -10 -1 1.892 2.131 0.132 57.825 o
-2 -9 -25 0.102 0.229 0.118 73.036 o
-2 -9 -24 0.125 0.230 0.093 115.973 o
-2 -9 -23 0.849 0.874 0.101 98.205 o
-2 -9 -22 0.026 0.125 0.082 148.274 o
-2 -9 -21 0.011 -0.016 0.297 11.433 o
-2 -9 -20 0.209 0.267 0.071 202.258 o
-2 -9 -19 0.876 0.718 0.073 187.660 o
-2 -9 -18 0.645 0.715 0.077 172.136 o
-2 -9 -17 0.132 0.250 0.070 208.578 o
-2 -9 -16 1.940 2.045 0.103 95.144 o
-2 -9 -15 0.677 0.928 0.118 72.370 o
-2 -9 -14 1.393 1.341 0.135 55.094 o
-2 -9 -13 2.867 3.083 0.123 66.770 o
-2 -9 -12 1.961 2.253 0.108 86.774 o
-2 -9 -11 1.941 1.803 0.142 49.801 o
-2 -9 -10 0.233 0.163 0.071 199.205 o
-2 -9 -9 9.348 9.223 0.306 10.758 o
-2 -9 -8 2.122 2.226 0.096 109.549 o
-2 -9 -7 1.959 1.912 0.099 102.521 o
-2 -9 -6 2.023 2.107 0.100 101.416 o
-2 -9 -5 9.549 9.077 0.298 11.391 o
-2 -9 -4 16.052 16.475 0.526 3.644 o
-2 -9 -3 0.549 0.598 0.065 237.071 o
-2 -9 -2 0.578 0.458 0.063 253.558 o
-2 -9 -1 3.259 3.134 0.124 65.614 o
-2 -8 -26 0.061 0.025 0.112 80.227 o
-2 -8 -25 0.208 0.293 0.085 140.815 o
-2 -8 -24 0.004 0.077 0.082 148.274 o
-2 -8 -23 0.203 0.287 0.078 167.388 o
-2 -8 -22 0.297 0.174 0.070 205.382 o
-2 -8 -21 0.373 0.317 0.070 205.382 o
-2 -8 -20 0.860 0.906 0.081 154.265 o
-2 -8 -19 0.206 0.267 0.070 208.578 o
-2 -8 -18 0.321 0.362 0.070 208.578 o
-2 -8 -17 0.336 0.528 0.083 146.355 o
-2 -8 -16 1.445 1.294 0.093 117.325 o
-2 -8 -15 1.558 1.486 0.094 114.644 o
-2 -8 -14 1.705 1.605 0.095 110.790 o
-2 -8 -13 1.132 1.108 0.080 156.342 o
-2 -8 -12 4.319 4.897 0.173 33.685 o
-2 -8 -11 2.973 3.194 0.133 57.356 o
-2 -8 -10 4.175 3.723 0.147 46.915 o
-2 -8 -9 1.623 1.627 0.122 67.957 o
-2 -8 -8 39.209 39.901 1.312 0.586 o
-2 -8 -7 9.589 9.327 0.328 9.389 o
-2 -8 -6 7.808 7.362 0.247 16.475 o
-2 -8 -5 0.125 0.119 0.052 376.622 o
-2 -8 -4 36.646 36.452 1.127 0.794 o
-2 -8 -3 10.928 10.833 0.342 8.608 o
-2 -8 -2 6.023 5.808 0.221 20.648 o
-2 -8 -1 1.820 1.671 0.073 187.660 o
-2 -7 -27 0.091 0.261 0.114 77.228 o
-2 -7 -26 0.031 0.170 0.086 135.584 o
-2 -7 -25 0.033 0.119 0.085 139.038 o
-2 -7 -24 0.062 0.153 0.078 167.388 o
-2 -7 -23 0.348 0.376 0.089 127.491 o
-2 -7 -22 0.691 0.722 0.098 105.948 o
-2 -7 -21 0.005 0.203 0.071 199.205 o
-2 -7 -20 0.024 0.089 0.073 190.450 o
-2 -7 -19 0.052 0.049 0.081 154.265 o
-2 -7 -18 0.489 0.665 0.087 133.905 o
-2 -7 -17 0.476 0.497 0.067 222.141 o
-2 -7 -16 2.228 2.281 0.102 96.148 o
-2 -7 -15 2.862 2.896 0.125 64.487 o
-2 -7 -14 3.917 4.013 0.147 46.572 o
-2 -7 -13 1.035 1.093 0.068 218.629 o
-2 -7 -12 11.189 11.252 0.395 6.460 o
-2 -7 -11 5.777 5.116 0.204 24.164 o
-2 -7 -10 41.664 42.642 1.355 0.549 o
-2 -7 -9 3.535 3.629 0.128 61.795 o
-2 -7 -8 8.838 8.715 0.278 13.036 o
-2 -7 -7 0.739 0.659 0.059 286.856 o
-2 -7 -6 62.024 60.421 1.885 0.284 o
-2 -7 -5 15.773 15.676 0.494 4.128 o
-2 -7 -4 4.857 4.782 0.180 31.114 o
-2 -7 -3 6.299 5.994 0.192 27.387 o
-2 -7 -2 12.417 11.723 0.367 7.484 o
-2 -7 -1 2.197 2.132 0.082 150.232 o
-2 -6 -28 0.090 0.064 0.096 109.549 o
-2 -6 -27 0.044 -0.006 0.300 11.188 o
-2 -6 -26 0.151 0.074 0.077 169.737 o
-2 -6 -25 0.273 0.308 0.073 187.660 o
-2 -6 -24 0.181 0.249 0.072 196.221 o
-2 -6 -23 0.629 0.723 0.096 108.328 o
-2 -6 -22 0.179 0.215 0.075 179.647 o
-2 -6 -21 0.506 0.486 0.079 160.625 o
-2 -6 -20 0.173 0.242 0.081 154.265 o
-2 -6 -19 1.336 1.102 0.080 158.462 o
-2 -6 -18 1.894 1.714 0.109 85.064 o
-2 -6 -17 2.824 2.749 0.167 36.352 o
-2 -6 -16 2.653 2.603 0.112 81.004 o
-2 -6 -15 1.726 1.833 0.093 115.973 o
-2 -6 -14 23.297 23.460 0.779 1.662 o
-2 -6 -13 4.434 4.751 0.183 30.026 o
-2 -6 -12 8.694 8.508 0.282 12.641 o
-2 -6 -11 2.313 2.232 0.099 102.521 o
-2 -6 -10 34.130 34.172 1.080 0.865 o
-2 -6 -9 5.327 4.754 0.164 37.312 o
-2 -6 -8 11.267 11.078 0.347 8.369 o
-2 -6 -7 4.898 4.934 0.162 38.310 o
-2 -6 -6 6.079 6.173 0.211 22.704 o
-2 -6 -5 14.705 14.269 0.439 5.238 o
-2 -6 -4 1.954 1.818 0.081 154.265 o
-2 -6 -3 4.055 4.027 0.162 38.566 o
-2 -6 -2 90.329 90.669 2.678 0.141 o
-2 -6 -1 59.482 58.596 1.746 0.331 o
-2 -5 -29 0.217 0.299 0.094 114.644 o
-2 -5 -28 0.159 0.215 0.087 132.257 o
-2 -5 -27 0.024 0.203 0.074 182.260 o
-2 -5 -26 0.083 0.165 0.074 182.260 o
-2 -5 -25 0.839 0.854 0.078 165.087 o
-2 -5 -24 0.204 0.407 0.070 205.382 o
-2 -5 -23 0.180 0.203 0.071 199.205 o
-2 -5 -22 0.096 0.172 0.084 144.473 o
-2 -5 -21 4.507 4.313 0.175 33.064 o
-2 -5 -20 0.988 1.065 0.073 187.660 o
-2 -5 -19 3.450 3.173 0.157 40.989 o
-2 -5 -18 1.688 1.956 0.099 102.521 o
-2 -5 -17 5.283 5.093 0.183 30.026 o
-2 -5 -16 16.126 17.218 0.571 3.095 o
-2 -5 -15 1.530 1.458 0.079 160.625 o
-2 -5 -14 1.756 1.767 0.092 118.702 o
-2 -5 -13 0.554 0.647 0.070 205.382 o
-2 -5 -12 37.491 37.559 1.152 0.759 o
-2 -5 -11 2.762 2.775 0.120 70.428 o
-2 -5 -10 0.619 0.606 0.047 448.212 o
-2 -5 -9 11.283 10.745 0.335 8.972 o
-2 -5 -8 9.909 9.716 0.315 10.142 o
-2 -5 -7 9.024 9.098 0.320 9.870 o
-2 -5 -6 2.818 2.682 0.090 124.456 o
-2 -5 -5 29.321 27.571 0.813 1.524 o
-2 -5 -4 44.363 43.212 1.302 0.595 o
-2 -5 -3 139.342 138.068 4.066 0.061 o
-2 -5 -2 10.403 10.480 0.333 9.088 o
-2 -5 -1 96.165 94.518 2.835 0.125 o
-2 -4 -30 0.009 0.125 0.130 59.761 o
-2 -4 -29 0.122 0.132 0.080 156.342 o
-2 -4 -28 0.277 0.161 0.099 103.645 o
-2 -4 -27 0.354 0.389 0.073 187.660 o
-2 -4 -26 0.329 0.388 0.074 184.930 o
-2 -4 -25 0.098 0.167 0.071 202.258 o
-2 -4 -24 0.036 0.136 0.070 205.382 o
-2 -4 -23 1.862 1.901 0.107 87.648 o
-2 -4 -22 1.750 1.541 0.102 97.168 o
-2 -4 -21 0.845 0.777 0.091 122.979 o
-2 -4 -20 1.090 1.089 0.099 103.645 o
-2 -4 -19 3.063 3.407 0.135 55.535 o
-2 -4 -18 2.641 2.736 0.115 76.505 o
-2 -4 -17 4.865 4.849 0.172 33.896 o
-2 -4 -16 3.209 3.365 0.139 52.145 o
-2 -4 -15 2.801 2.780 0.102 96.148 o
-2 -4 -14 5.786 5.759 0.192 27.234 o
-2 -4 -13 0.969 0.996 0.057 308.914 o
-2 -4 -12 14.241 14.092 0.428 5.506 o
-2 -4 -11 9.701 9.627 0.329 9.297 o
-2 -4 -10 23.152 22.936 0.708 2.013 o
-2 -4 -9 7.921 7.879 0.255 15.514 o
-2 -4 -8 86.620 84.575 2.419 0.172 o
-2 -4 -7 110.330 105.826 3.330 0.091 o
-2 -4 -6 13.281 12.706 0.396 6.425 o
-2 -4 -5 101.318 98.459 2.997 0.112 o
-2 -4 -4 126.635 121.792 3.655 0.076 o
-2 -4 -3 68.404 67.154 2.064 0.237 o
-2 -4 -2 1.569 1.376 0.061 271.826 o
-2 -4 -1 170.319 163.401 5.203 0.037 o
-2 -3 -30 0.331 0.457 0.099 102.521 o
-2 -3 -29 0.172 0.184 0.081 152.228 o
-2 -3 -28 0.735 0.649 0.080 156.342 o
-2 -3 -27 0.614 0.706 0.080 158.462 o
-2 -3 -26 0.209 0.168 0.072 196.221 o
-2 -3 -25 0.272 0.279 0.073 190.450 o
-2 -3 -24 3.040 3.181 0.137 53.379 o
-2 -3 -23 1.995 1.866 0.101 99.258 o
-2 -3 -22 0.125 0.210 0.067 225.738 o
-2 -3 -21 0.066 0.090 0.063 253.558 o
-2 -3 -20 3.374 3.469 0.146 47.262 o
-2 -3 -19 1.488 1.637 0.094 113.337 o
-2 -3 -18 0.712 0.691 0.062 262.454 o
-2 -3 -17 3.726 3.794 0.206 23.786 o
-2 -3 -16 10.847 11.373 0.369 7.419 o
-2 -3 -15 4.171 4.172 0.146 47.262 o
-2 -3 -14 5.855 5.664 0.183 30.203 o
-2 -3 -13 5.530 5.802 0.188 28.661 o
-2 -3 -12 47.958 48.195 1.523 0.435 o
-2 -3 -11 24.741 25.561 0.793 1.602 o
-2 -3 -10 143.091 140.734 4.008 0.063 o
-2 -3 -9 31.211 30.127 0.883 1.294 o
-2 -3 -8 50.859 50.267 1.545 0.422 o
-2 -3 -7 9.195 8.895 0.348 8.317 o
-2 -3 -6 433.351 420.744 12.827 0.006 o
-2 -3 -5 205.469 202.473 6.364 0.025 o
-2 -3 -4 68.379 67.774 1.972 0.259 o
-2 -3 -3 181.562 172.576 5.049 0.040 o
-2 -3 -2 194.735 195.389 5.867 0.029 o
-2 -3 -1 169.840 173.141 4.961 0.041 o
-2 -2 -31 0.293 0.461 0.094 114.644 o
-2 -2 -30 0.265 0.266 0.088 130.639 o
-2 -2 -29 0.733 0.579 0.098 105.948 o
-2 -2 -28 0.127 0.079 0.073 190.450 o
-2 -2 -27 0.541 0.680 0.079 162.833 o
-2 -2 -26 0.753 0.805 0.079 162.833 o
-2 -2 -25 4.909 4.547 0.175 33.064 o
-2 -2 -24 0.797 0.697 0.077 172.136 o
-2 -2 -23 0.188 0.133 0.075 179.647 o
-2 -2 -22 0.982 1.151 0.074 182.260 o
-2 -2 -21 6.338 6.199 0.306 10.796 o
-2 -2 -20 6.827 6.232 0.226 19.771 o
-2 -2 -19 0.882 0.773 0.068 218.629 o
-2 -2 -18 2.429 2.619 0.122 67.359 o
-2 -2 -17 0.181 0.176 0.051 392.819 o
-2 -2 -16 29.293 29.055 0.947 1.124 o
-2 -2 -15 14.919 14.831 0.460 4.759 o
-2 -2 -14 12.659 12.426 0.421 5.690 o
-2 -2 -13 35.776 36.668 1.112 0.816 o
-2 -2 -12 39.903 37.935 1.136 0.782 o
-2 -2 -11 38.489 38.329 1.110 0.819 o
-2 -2 -10 2.541 2.566 0.091 122.979 o
-2 -2 -9 79.439 78.660 2.689 0.140 o
-2 -2 -8 109.264 107.656 3.183 0.100 o
-2 -2 -7 80.185 79.494 2.386 0.177 o
-2 -2 -6 213.289 213.993 6.235 0.026 o
-2 -2 -5 5.524 4.960 0.144 48.326 o
-2 -2 -4 80.316 78.688 2.349 0.183 o
-2 -2 -3 100.131 101.345 2.834 0.126 o
-2 -2 -2 925.137 972.084 28.302 0.001 o
-2 -2 -1 275.529 273.022 7.825 0.016 o
-2 -1 -31 0.280 0.474 0.094 114.644 o
-2 -1 -30 0.056 0.037 0.079 162.833 o
-2 -1 -29 1.032 1.051 0.087 133.905 o
-2 -1 -28 0.020 -0.031 0.303 10.989 o
-2 -1 -27 3.042 2.765 0.124 65.614 o
-2 -1 -26 0.201 0.225 0.077 172.136 o
-2 -1 -25 0.135 0.068 0.072 193.303 o
-2 -1 -24 0.267 0.301 0.072 193.303 o
-2 -1 -23 9.973 9.592 0.317 10.039 o
-2 -1 -22 5.519 5.561 0.189 28.173 o
-2 -1 -21 4.677 4.540 0.168 35.657 o
-2 -1 -20 1.215 1.239 0.080 158.462 o
-2 -1 -19 13.568 13.506 0.432 5.410 o
-2 -1 -18 27.208 27.742 0.873 1.324 o
-2 -1 -17 32.148 32.347 0.984 1.041 o
-2 -1 -16 9.093 8.856 0.284 12.545 o
-2 -1 -15 12.239 12.273 0.417 5.809 o
-2 -1 -14 25.533 25.983 0.783 1.644 o
-2 -1 -13 67.887 69.050 2.201 0.208 o
-2 -1 -12 53.233 52.402 1.625 0.382 o
-2 -1 -11 57.934 57.966 1.780 0.318 o
-2 -1 -10 34.646 34.849 1.055 0.906 o
-2 -1 -9 44.234 45.173 1.359 0.546 o
-2 -1 -8 4.455 4.526 0.161 39.086 o
-2 -1 -7 113.870 118.496 3.468 0.084 o
-2 -1 -6 170.040 173.664 5.210 0.037 o
-2 -1 -5 14.184 13.453 0.473 4.503 o
-2 -1 -4 938.587 979.919 30.048 0.001 o
-2 -1 -3 152.864 160.109 4.608 0.048 o
-2 -1 -2 553.177 562.607 16.985 0.003 o
-2 -1 -1 48.006 45.179 1.469 0.467 o
-1 -15 -6 0.099 0.156 0.106 89.437 o
-1 -15 -5 0.078 0.075 0.095 110.790 o
-1 -15 -4 0.153 0.356 0.139 52.551 o
-1 -15 -3 0.015 0.088 0.088 130.639 o
-1 -15 -2 0.096 0.068 0.113 79.461 o
-1 -15 -1 0.016 0.105 0.088 130.639 o
-1 -14 -12 0.008 0.133 0.107 87.648 o
-1 -14 -11 0.720 0.747 0.095 110.790 o
-1 -14 -10 0.224 0.252 0.093 115.973 o
-1 -14 -9 0.027 -0.051 0.467 4.628 o
-1 -14 -8 0.082 0.081 0.082 150.232 o
-1 -14 -7 0.371 0.501 0.082 148.274 o
-1 -14 -6 0.185 0.249 0.094 113.337 o
-1 -14 -5 0.066 0.171 0.080 158.462 o
-1 -14 -4 0.191 0.355 0.100 100.328 o
-1 -14 -3 0.002 0.054 0.102 96.148 o
-1 -14 -2 0.046 0.168 0.081 152.228 o
-1 -14 -1 0.096 0.184 0.084 142.626 o
-1 -13 -16 0.111 0.140 0.133 56.892 o
-1 -13 -15 0.111 0.133 0.105 91.281 o
-1 -13 -14 0.048 0.189 0.093 117.325 o
-1 -13 -13 0.287 0.252 0.085 140.815 o
-1 -13 -12 0.382 0.427 0.094 113.337 o
-1 -13 -11 0.225 0.231 0.082 150.232 o
-1 -13 -10 0.030 0.050 0.080 158.462 o
-1 -13 -9 0.100 -0.050 0.308 10.646 o
-1 -13 -8 0.379 0.542 0.075 177.089 o
-1 -13 -7 0.590 0.555 0.075 177.089 o
-1 -13 -6 0.099 0.004 0.081 154.265 o
-1 -13 -5 0.284 0.342 0.074 184.930 o
-1 -13 -4 0.293 0.275 0.073 190.450 o
-1 -13 -3 0.203 0.246 0.073 190.450 o
-1 -13 -2 0.540 0.471 0.092 118.702 o
-1 -13 -1 0.166 0.166 0.084 142.626 o
-1 -12 -19 0.013 0.008 0.111 82.593 o
-1 -12 -18 0.071 0.199 0.089 127.491 o
-1 -12 -17 0.399 0.411 0.081 152.228 o
-1 -12 -16 0.268 0.238 0.080 156.342 o
-1 -12 -15 0.069 0.105 0.080 158.462 o
-1 -12 -14 0.333 0.303 0.080 156.342 o
-1 -12 -13 0.175 0.147 0.077 172.136 o
-1 -12 -12 0.250 0.335 0.122 67.957 o
-1 -12 -11 0.509 0.519 0.088 130.639 o
-1 -12 -10 0.235 0.353 0.098 104.787 o
-1 -12 -9 0.921 1.053 0.092 118.702 o
-1 -12 -8 0.030 0.059 0.080 158.462 o
-1 -12 -7 1.662 1.644 0.104 93.182 o
-1 -12 -6 0.201 0.245 0.080 156.342 o
-1 -12 -5 1.880 1.791 0.125 64.487 o
-1 -12 -4 0.390 0.328 0.078 165.087 o
-1 -12 -3 1.212 1.178 0.103 94.156 o
-1 -12 -2 0.357 0.308 0.078 167.388 o
-1 -12 -1 0.254 0.250 0.075 177.089 o
-1 -11 -22 0.038 0.186 0.149 45.236 o
-1 -11 -21 0.048 -0.004 0.279 12.936 o
-1 -11 -20 0.025 -0.019 0.302 11.029 o
-1 -11 -19 0.224 0.206 0.079 160.625 o
-1 -11 -18 0.296 0.391 0.085 139.038 o
-1 -11 -17 0.383 0.360 0.086 135.584 o
-1 -11 -16 0.244 0.195 0.072 193.303 o
-1 -11 -15 0.009 0.038 0.075 177.089 o
-1 -11 -14 0.342 0.298 0.070 208.578 o
-1 -11 -13 0.629 0.570 0.071 202.258 o
-1 -11 -12 0.061 0.174 0.072 193.303 o
-1 -11 -11 1.346 1.443 0.096 108.328 o
-1 -11 -10 0.180 0.407 0.075 177.089 o
-1 -11 -9 0.291 0.197 0.083 146.355 o
-1 -11 -8 1.195 1.176 0.099 103.645 o
-1 -11 -7 1.565 1.543 0.100 101.416 o
-1 -11 -6 0.280 0.245 0.101 98.205 o
-1 -11 -5 2.500 2.581 0.118 72.370 o
-1 -11 -4 0.924 0.916 0.076 174.586 o
-1 -11 -3 0.308 0.370 0.075 179.647 o
-1 -11 -2 0.989 0.972 0.077 172.136 o
-1 -11 -1 3.100 2.845 0.118 73.036 o
-1 -10 -23 0.220 0.203 0.099 102.521 o
-1 -10 -22 0.059 0.165 0.085 140.815 o
-1 -10 -21 0.101 0.208 0.115 76.505 o
-1 -10 -20 0.172 0.253 0.095 112.053 o
-1 -10 -19 0.314 0.308 0.078 165.087 o
-1 -10 -18 0.241 0.361 0.083 146.355 o
-1 -10 -17 0.254 0.209 0.069 211.850 o
-1 -10 -16 0.314 0.320 0.069 211.850 o
-1 -10 -15 1.834 1.998 0.097 107.128 o
-1 -10 -14 0.026 0.009 0.071 202.258 o
-1 -10 -13 2.205 2.027 0.100 101.416 o
-1 -10 -12 1.244 1.328 0.095 112.053 o
-1 -10 -11 3.483 3.700 0.217 21.478 o
-1 -10 -10 2.048 2.055 0.132 58.300 o
-1 -10 -9 1.064 0.933 0.082 150.232 o
-1 -10 -8 0.208 0.153 0.084 144.473 o
-1 -10 -7 0.654 0.682 0.082 148.274 o
-1 -10 -6 4.852 4.700 0.190 28.013 o
-1 -10 -5 1.873 1.930 0.120 69.797 o
-1 -10 -4 1.894 1.854 0.128 61.795 o
-1 -10 -3 2.662 2.813 0.122 67.359 o
-1 -10 -2 0.856 0.859 0.081 152.228 o
-1 -10 -1 7.068 6.827 0.238 17.847 o
-1 -9 -25 0.258 0.427 0.156 41.272 o
-1 -9 -24 0.200 0.244 0.086 137.295 o
-1 -9 -23 0.334 0.427 0.081 152.228 o
-1 -9 -22 0.110 0.143 0.080 158.462 o
-1 -9 -21 0.354 0.310 0.073 190.450 o
-1 -9 -20 0.200 0.261 0.071 202.258 o
-1 -9 -19 0.295 0.355 0.074 184.930 o
-1 -9 -18 0.026 -0.014 0.311 10.425 o
-1 -9 -17 4.311 4.143 0.177 32.067 o
-1 -9 -16 0.080 0.209 0.073 187.660 o
-1 -9 -15 0.420 0.534 0.083 146.355 o
-1 -9 -14 1.693 1.559 0.116 74.394 o
-1 -9 -13 7.518 7.687 0.309 10.572 o
-1 -9 -12 1.414 1.390 0.087 133.905 o
-1 -9 -11 4.839 4.733 0.217 21.372 o
-1 -9 -10 1.044 0.933 0.074 182.260 o
-1 -9 -9 1.818 1.984 0.092 120.102 o
-1 -9 -8 4.896 5.137 0.180 31.301 o
-1 -9 -7 5.417 5.134 0.183 30.203 o
-1 -9 -6 1.860 1.873 0.090 124.456 o
-1 -9 -5 1.130 1.156 0.078 167.388 o
-1 -9 -4 2.033 2.111 0.099 102.521 o
-1 -9 -3 1.348 1.375 0.091 121.528 o
-1 -9 -2 5.024 4.651 0.171 34.324 o
-1 -9 -1 1.461 1.395 0.080 158.462 o
-1 -8 -26 0.269 0.472 0.109 85.064 o
-1 -8 -25 0.306 0.265 0.084 142.626 o
-1 -8 -24 0.396 0.260 0.080 156.342 o
-1 -8 -23 0.603 0.598 0.085 139.038 o
-1 -8 -22 0.162 0.178 0.074 184.930 o
-1 -8 -21 1.846 1.705 0.097 107.128 o
-1 -8 -20 0.592 0.669 0.077 172.136 o
-1 -8 -19 4.987 4.437 0.175 33.064 o
-1 -8 -18 0.296 0.418 0.070 208.578 o
-1 -8 -17 3.474 3.417 0.143 49.426 o
-1 -8 -16 0.605 0.703 0.092 118.702 o
-1 -8 -15 4.759 4.256 0.264 14.515 o
-1 -8 -14 0.884 0.737 0.079 160.625 o
-1 -8 -13 6.073 6.062 0.257 15.255 o
-1 -8 -12 2.233 2.445 0.109 84.228 o
-1 -8 -11 1.073 1.072 0.074 182.260 o
-1 -8 -10 1.983 1.729 0.093 117.325 o
-1 -8 -9 13.156 13.921 0.471 4.554 o
-1 -8 -8 2.841 3.106 0.156 41.558 o
-1 -8 -7 6.634 6.283 0.211 22.588 o
-1 -8 -6 1.381 1.473 0.073 190.450 o
-1 -8 -5 16.462 16.126 0.513 3.830 o
-1 -8 -4 11.377 11.738 0.381 6.964 o
-1 -8 -3 0.605 0.666 0.058 303.166 o
-1 -8 -2 20.743 19.665 0.615 2.666 o
-1 -8 -1 14.723 14.695 0.473 4.503 o
-1 -7 -28 0.170 0.247 0.093 115.973 o
-1 -7 -27 0.072 0.050 0.100 100.328 o
-1 -7 -26 0.508 0.419 0.089 127.491 o
-1 -7 -25 0.191 0.330 0.080 156.342 o
-1 -7 -24 0.171 0.322 0.071 199.205 o
-1 -7 -23 1.530 1.381 0.092 120.102 o
-1 -7 -22 1.364 1.580 0.092 118.702 o
-1 -7 -21 2.336 2.346 0.108 86.774 o
-1 -7 -20 0.822 0.801 0.084 144.473 o
-1 -7 -19 4.527 4.450 0.192 27.234 o
-1 -7 -18 3.183 3.346 0.189 28.334 o
-1 -7 -17 6.342 5.962 0.293 11.729 o
-1 -7 -16 1.481 1.319 0.087 133.905 o
-1 -7 -15 4.710 4.433 0.184 29.850 o
-1 -7 -14 7.036 6.571 0.249 16.332 o
-1 -7 -13 5.292 5.236 0.198 25.630 o
-1 -7 -12 0.033 0.011 0.066 233.200 o
-1 -7 -11 9.787 9.894 0.354 8.041 o
-1 -7 -10 12.881 11.854 0.371 7.333 o
-1 -7 -9 20.413 20.520 0.718 1.956 o
-1 -7 -8 0.215 0.227 0.050 410.084 o
-1 -7 -7 6.559 6.787 0.223 20.251 o
-1 -7 -6 24.206 24.406 0.755 1.768 o
-1 -7 -5 18.464 17.502 0.552 3.310 o
-1 -7 -4 24.169 23.485 0.725 1.919 o
-1 -7 -3 11.116 10.373 0.343 8.581 o
-1 -7 -2 9.496 8.921 0.289 12.037 o
-1 -7 -1 23.601 23.438 0.734 1.871 o
-1 -6 -29 0.069 0.083 0.093 115.973 o
-1 -6 -28 0.438 0.710 0.116 74.394 o
-1 -6 -27 0.282 0.357 0.092 118.702 o
-1 -6 -26 0.093 0.167 0.079 162.833 o
-1 -6 -25 0.190 0.265 0.070 205.382 o
-1 -6 -24 0.843 0.958 0.077 172.136 o
-1 -6 -23 1.735 1.754 0.089 125.960 o
-1 -6 -22 2.022 2.072 0.142 49.801 o
-1 -6 -21 0.952 1.087 0.121 68.562 o
-1 -6 -20 1.671 1.849 0.140 51.743 o
-1 -6 -19 4.524 4.834 0.171 34.541 o
-1 -6 -18 7.878 7.876 0.288 12.127 o
-1 -6 -17 12.836 12.388 0.455 4.873 o
-1 -6 -16 3.649 3.468 0.146 47.262 o
-1 -6 -15 4.069 4.232 0.163 37.806 o
-1 -6 -14 7.743 7.467 0.271 13.773 o
-1 -6 -13 37.835 35.754 1.180 0.724 o
-1 -6 -12 9.237 9.192 0.302 11.068 o
-1 -6 -11 5.064 4.942 0.171 34.324 o
-1 -6 -10 0.732 0.776 0.056 327.171 o
-1 -6 -9 0.636 0.561 0.050 401.313 o
-1 -6 -8 28.054 26.790 0.894 1.263 o
-1 -6 -7 22.115 21.862 0.666 2.272 o
-1 -6 -6 9.627 9.524 0.296 11.474 o
-1 -6 -5 58.327 56.405 1.695 0.351 o
-1 -6 -4 30.009 29.567 0.881 1.300 o
-1 -6 -3 32.436 29.779 0.872 1.327 o
-1 -6 -2 60.352 57.775 1.665 0.364 o
-1 -6 -1 63.565 61.588 1.803 0.310 o
-1 -5 -29 0.169 0.160 0.092 118.702 o
-1 -5 -28 0.035 0.052 0.086 135.584 o
-1 -5 -27 0.137 0.113 0.093 115.973 o
-1 -5 -26 0.737 0.788 0.077 169.737 o
-1 -5 -25 1.741 1.702 0.107 88.536 o
-1 -5 -24 1.826 1.975 0.107 87.648 o
-1 -5 -23 0.324 0.392 0.074 184.930 o
-1 -5 -22 0.266 0.289 0.088 130.639 o
-1 -5 -21 1.194 1.388 0.111 82.593 o
-1 -5 -20 9.951 9.923 0.329 9.328 o
-1 -5 -19 9.068 9.468 0.391 6.585 o
-1 -5 -18 1.489 1.313 0.094 114.644 o
-1 -5 -17 0.355 0.417 0.062 262.454 o
-1 -5 -16 18.396 18.656 0.715 1.971 o
-1 -5 -15 50.500 52.872 2.110 0.227 o
-1 -5 -14 2.569 2.472 0.095 110.790 o
-1 -5 -13 8.219 7.701 0.280 12.886 o
-1 -5 -12 10.660 10.541 0.329 9.297 o
-1 -5 -11 24.925 23.660 0.722 1.936 o
-1 -5 -10 7.605 7.598 0.281 12.738 o
-1 -5 -9 37.271 35.759 1.153 0.759 o
-1 -5 -8 0.020 0.061 0.041 600.927 o
-1 -5 -7 80.584 74.592 2.414 0.173 o
-1 -5 -6 36.292 34.900 1.017 0.975 o
-1 -5 -5 26.419 26.227 0.760 1.746 o
-1 -5 -4 9.042 8.551 0.278 13.087 o
-1 -5 -3 213.791 203.849 5.835 0.030 o
-1 -5 -2 57.906 54.904 1.654 0.369 o
-1 -5 -1 78.148 73.240 2.199 0.209 o
-1 -4 -30 0.154 0.165 0.093 117.325 o
-1 -4 -29 0.468 0.353 0.088 130.639 o
-1 -4 -28 0.767 0.712 0.085 140.815 o
-1 -4 -27 0.227 0.128 0.105 91.281 o
-1 -4 -26 1.218 0.973 0.088 130.639 o
-1 -4 -25 0.727 0.605 0.076 174.586 o
-1 -4 -24 2.912 2.742 0.148 45.897 o
-1 -4 -23 0.291 0.304 0.084 142.626 o
-1 -4 -22 4.036 3.960 0.170 34.981 o
-1 -4 -21 0.736 0.729 0.106 90.352 o
-1 -4 -20 10.629 9.834 0.356 7.968 o
-1 -4 -19 5.201 5.186 0.196 26.341 o
-1 -4 -18 8.901 9.070 0.314 10.212 o
-1 -4 -17 4.774 5.449 0.259 15.002 o
-1 -4 -16 17.827 18.121 0.569 3.113 o
-1 -4 -15 13.422 13.634 0.425 5.576 o
-1 -4 -14 20.117 19.943 0.661 2.309 o
-1 -4 -13 16.066 16.165 0.504 3.970 o
-1 -4 -12 18.988 18.739 0.599 2.812 o
-1 -4 -11 137.393 137.981 4.559 0.049 o
-1 -4 -10 15.776 15.973 0.492 4.173 o
-1 -4 -9 2.095 1.987 0.081 154.265 o
-1 -4 -8 25.521 25.101 0.767 1.717 o
-1 -4 -7 183.248 177.365 5.137 0.038 o
-1 -4 -6 20.078 19.909 0.632 2.527 o
-1 -4 -5 31.565 30.981 1.010 0.988 o
-1 -4 -4 17.136 17.020 0.514 3.814 o
-1 -4 -3 97.697 95.393 2.965 0.115 o
-1 -4 -2 23.014 21.670 0.662 2.298 o
-1 -4 -1 103.482 100.996 3.236 0.096 o
-1 -3 -30 0.292 0.422 0.091 122.979 o
-1 -3 -29 0.131 0.108 0.096 109.549 o
-1 -3 -28 1.043 0.951 0.092 118.702 o
-1 -3 -27 0.155 0.186 0.078 167.388 o
-1 -3 -26 2.521 2.341 0.116 75.088 o
-1 -3 -25 0.544 0.626 0.081 154.265 o
-1 -3 -24 3.908 3.646 0.170 34.981 o
-1 -3 -23 0.673 0.672 0.085 139.038 o
-1 -3 -22 12.678 12.279 0.406 6.105 o
-1 -3 -21 6.860 6.988 0.248 16.403 o
-1 -3 -20 1.595 1.610 0.090 124.456 o
-1 -3 -19 2.196 2.199 0.096 108.328 o
-1 -3 -18 21.657 22.765 0.742 1.833 o
-1 -3 -17 4.731 5.095 0.187 28.993 o
-1 -3 -16 12.559 12.627 0.391 6.603 o
-1 -3 -15 0.319 0.332 0.047 458.575 o
-1 -3 -14 12.575 13.255 0.440 5.200 o
-1 -3 -13 40.905 41.520 1.259 0.637 o
-1 -3 -12 32.404 33.294 1.007 0.994 o
-1 -3 -11 27.489 26.702 0.813 1.524 o
-1 -3 -10 19.736 19.658 0.613 2.685 o
-1 -3 -9 224.776 224.198 6.600 0.023 o
-1 -3 -8 30.824 29.829 0.937 1.149 o
-1 -3 -7 117.446 122.582 3.560 0.080 o
-1 -3 -6 37.136 36.315 1.283 0.613 o
-1 -3 -5 19.887 19.764 0.610 2.713 o
-1 -3 -4 79.036 73.235 2.149 0.218 o
-1 -3 -3 349.257 333.104 9.570 0.011 o
-1 -3 -2 34.555 33.766 1.010 0.989 o
-1 -3 -1 257.040 254.120 7.763 0.017 o
-1 -2 -31 0.177 0.252 0.093 117.325 o
-1 -2 -30 0.433 0.383 0.093 115.973 o
-1 -2 -29 0.143 0.244 0.083 146.355 o
-1 -2 -28 0.299 0.381 0.078 167.388 o
-1 -2 -27 0.373 0.360 0.081 154.265 o
-1 -2 -26 3.569 3.279 0.140 51.345 o
-1 -2 -25 1.571 1.655 0.095 112.053 o
-1 -2 -24 3.883 3.877 0.161 39.086 o
-1 -2 -23 0.446 0.600 0.079 160.625 o
-1 -2 -22 4.845 4.715 0.175 33.064 o
-1 -2 -21 3.747 3.846 0.223 20.251 o
-1 -2 -20 15.741 15.966 0.519 3.751 o
-1 -2 -19 4.420 4.843 0.178 31.680 o
-1 -2 -18 3.411 3.441 0.163 37.806 o
-1 -2 -17 3.358 3.266 0.125 64.487 o
-1 -2 -16 3.908 4.427 0.168 35.886 o
-1 -2 -15 6.185 6.021 0.194 26.931 o
-1 -2 -14 29.953 30.952 0.976 1.058 o
-1 -2 -13 35.514 36.281 1.089 0.850 o
-1 -2 -12 16.072 16.084 0.481 4.353 o
-1 -2 -11 6.983 6.820 0.206 23.662 o
-1 -2 -10 6.686 6.850 0.209 23.056 o
-1 -2 -9 182.027 183.245 5.888 0.029 o
-1 -2 -8 2.518 2.607 0.100 101.416 o
-1 -2 -7 86.446 85.138 2.563 0.154 o
-1 -2 -6 11.259 11.348 0.368 7.441 o
-1 -2 -5 350.219 363.108 10.354 0.009 o
-1 -2 -4 148.219 151.372 4.758 0.045 o
-1 -2 -3 440.916 434.396 13.406 0.006 o
-1 -2 -2 270.210 273.246 7.706 0.017 o
-1 -2 -1 53.874 49.212 1.478 0.462 o
-1 -1 -31 0.123 0.387 0.118 72.370 o
-1 -1 -30 0.359 0.397 0.087 132.257 o
-1 -1 -29 0.033 0.134 0.079 162.833 o
-1 -1 -28 1.248 1.168 0.103 94.156 o
-1 -1 -27 0.922 0.874 0.094 113.337 o
-1 -1 -26 0.009 0.124 0.078 165.087 o
-1 -1 -25 0.281 0.183 0.077 172.136 o
-1 -1 -24 3.080 2.990 0.129 60.260 o
-1 -1 -23 1.125 1.327 0.098 105.948 o
-1 -1 -22 5.267 5.192 0.184 29.850 o
-1 -1 -21 0.077 0.211 0.068 218.629 o
-1 -1 -20 1.193 1.136 0.075 179.647 o
-1 -1 -19 2.642 2.629 0.111 81.793 o
-1 -1 -18 8.890 9.430 0.335 8.972 o
-1 -1 -17 8.873 8.741 0.284 12.545 o
-1 -1 -16 23.621 24.151 0.747 1.809 o
-1 -1 -15 25.989 26.864 0.831 1.462 o
-1 -1 -14 9.057 8.802 0.274 13.397 o
-1 -1 -13 68.218 67.770 2.013 0.249 o
-1 -1 -12 3.137 3.052 0.107 88.536 o
-1 -1 -11 8.248 8.696 0.268 14.052 o
-1 -1 -10 85.007 83.460 2.467 0.166 o
-1 -1 -9 169.901 172.707 4.984 0.041 o
-1 -1 -8 164.212 166.487 4.868 0.043 o
-1 -1 -7 264.049 269.518 8.663 0.013 o
-1 -1 -6 17.918 18.102 0.561 3.209 o
-1 -1 -5 380.552 394.283 12.262 0.007 o
-1 -1 -4 137.388 139.968 4.018 0.062 o
-1 -1 -3 1010.590 1046.210 31.013 0.001 o
-1 -1 -2 114.563 116.332 4.675 0.046 o
-1 -1 -1 135.158 146.248 4.349 0.053 o
0 0 2 195.704 212.020 7.651 0.017 o
0 0 4 5047.000 5389.520 178.928 0.000 o
0 0 6 87.754 92.020 3.394 0.088 o
0 0 8 28.015 29.455 1.121 0.803 o
0 0 10 4.433 4.699 0.196 26.341 o
0 0 12 121.126 118.827 4.627 0.047 o
0 0 14 37.630 39.712 1.637 0.377 o
0 0 16 13.098 12.193 0.590 2.895 o
0 0 18 60.244 62.719 2.387 0.177 o
0 0 20 0.796 0.692 0.146 47.262 o
0 0 22 15.524 14.672 0.573 3.072 o
0 0 24 0.041 0.181 0.107 87.648 o
0 0 26 0.611 0.525 0.099 102.521 o
0 0 28 0.027 0.026 0.103 94.156 o
0 0 30 0.021 0.184 0.115 76.505 o
0 1 1 288.155 300.273 10.284 0.010 o
0 1 2 5323.170 5390.450 184.351 0.000 o
0 1 3 97.865 96.906 2.800 0.129 o
0 1 4 1555.140 1613.430 50.846 0.000 o
0 1 5 267.959 291.770 8.690 0.013 o
0 1 6 45.117 45.942 1.391 0.521 o
0 1 7 21.463 21.087 0.627 2.562 o
0 1 8 303.542 307.815 9.549 0.011 o
0 1 9 2.866 3.038 0.104 93.182 o
0 1 10 27.015 27.216 0.875 1.318 o
0 1 11 54.056 57.417 1.805 0.309 o
0 1 12 23.978 24.370 0.729 1.899 o
0 1 13 33.076 33.291 1.013 0.983 o
0 1 14 2.057 2.006 0.079 160.625 o
0 1 15 35.782 36.589 1.124 0.798 o
0 1 16 13.233 13.544 0.502 4.005 o
0 1 17 14.318 14.282 0.445 5.087 o
0 1 18 0.114 0.149 0.054 347.095 o
0 1 19 10.093 10.616 0.355 7.992 o
0 1 20 7.211 7.084 0.238 17.847 o
0 1 21 1.884 1.757 0.119 71.714 o
0 1 22 0.892 0.962 0.076 174.586 o
0 1 23 1.188 1.137 0.086 137.295 o
0 1 24 0.648 0.572 0.091 121.528 o
0 1 25 0.385 0.429 0.085 140.815 o
0 1 26 0.321 0.364 0.071 199.205 o
0 1 27 0.023 -0.038 0.296 11.516 o
0 1 28 0.066 0.207 0.073 187.660 o
0 1 29 0.252 0.289 0.076 174.586 o
0 1 30 0.074 0.044 0.087 133.905 o
0 1 31 0.222 0.294 0.100 101.416 o
0 2 0 37.702 36.003 1.211 0.687 o
0 2 1 44.882 43.563 1.248 0.648 o
0 2 2 1615.690 1648.130 50.398 0.000 o
0 2 3 566.238 581.309 18.439 0.003 o
0 2 4 57.481 55.465 1.834 0.300 o
0 2 5 108.319 111.899 3.221 0.097 o
0 2 6 1682.430 1732.640 54.599 0.000 o
0 2 7 152.709 153.471 4.793 0.044 o
0 2 8 3.006 3.165 0.098 104.787 o
0 2 9 174.879 184.474 5.464 0.034 o
0 2 10 149.353 152.035 4.526 0.049 o
0 2 11 3.358 3.165 0.111 82.593 o
0 2 12 15.619 15.964 0.485 4.285 o
0 2 13 94.136 97.551 2.992 0.113 o
0 2 14 3.006 3.227 0.115 76.505 o
0 2 15 25.800 25.529 0.831 1.462 o
0 2 16 7.528 6.955 0.225 19.961 o
0 2 17 16.635 16.298 0.577 3.026 o
0 2 18 9.655 10.377 0.355 7.992 o
0 2 19 10.394 10.213 0.408 6.073 o
0 2 20 0.688 0.742 0.070 208.578 o
0 2 21 1.974 1.678 0.088 129.051 o
0 2 22 3.041 3.006 0.132 57.825 o
0 2 23 3.446 3.438 0.134 56.435 o
0 2 24 1.683 1.704 0.093 117.325 o
0 2 25 0.034 0.030 0.075 179.647 o
0 2 26 0.108 0.125 0.068 215.199 o
0 2 27 1.819 1.815 0.092 118.702 o
0 2 28 0.073 0.128 0.074 184.930 o
0 2 29 0.192 0.175 0.078 165.087 o
0 2 30 0.149 0.254 0.082 150.232 o
0 2 31 0.537 0.573 0.093 117.325 o
0 3 1 21.349 20.814 0.696 2.083 o
0 3 2 1.148 1.309 0.049 428.513 o
0 3 3 33.188 32.502 1.031 0.948 o
0 3 4 420.376 423.007 12.365 0.007 o
0 3 5 122.810 124.756 4.236 0.056 o
0 3 6 40.806 40.079 1.233 0.663 o
0 3 7 171.136 171.511 5.262 0.036 o
0 3 8 49.023 53.251 1.614 0.387 o
0 3 9 48.164 47.461 1.485 0.457 o
0 3 10 18.674 18.770 0.572 3.078 o
0 3 11 130.479 130.380 3.768 0.071 o
0 3 12 8.721 8.843 0.305 10.835 o
0 3 13 0.707 0.730 0.052 376.622 o
0 3 14 1.583 1.974 0.088 130.639 o
0 3 15 11.902 12.032 0.397 6.408 o
0 3 16 18.596 18.278 0.621 2.615 o
0 3 17 9.035 9.205 0.412 5.947 o
0 3 18 1.284 1.559 0.086 135.584 o
0 3 19 0.034 0.143 0.059 292.143 o
0 3 20 7.319 6.987 0.271 13.719 o
0 3 21 6.130 5.932 0.216 21.585 o
0 3 22 0.495 0.382 0.080 156.342 o
0 3 23 0.028 0.153 0.077 172.136 o
0 3 24 1.504 1.346 0.124 65.614 o
0 3 25 3.859 3.539 0.154 42.434 o
0 3 26 0.116 0.168 0.069 211.850 o
0 3 27 0.011 0.068 0.070 205.382 o
0 3 28 0.025 -0.036 0.302 11.068 o
0 3 29 1.246 1.099 0.089 125.960 o
0 3 30 0.290 0.390 0.091 121.528 o
0 3 31 0.085 0.235 0.096 109.549 o
0 4 0 361.368 356.782 16.284 0.004 o
0 4 1 229.942 231.687 6.896 0.021 o
0 4 2 9.634 9.329 0.293 11.729 o
0 4 3 0.001 -0.005 0.121 69.175 o
0 4 4 28.192 27.448 0.937 1.148 o
0 4 5 10.494 10.089 0.330 9.267 o
0 4 6 61.478 57.944 1.970 0.260 o
0 4 7 55.295 54.046 1.610 0.389 o
0 4 8 87.172 84.773 2.542 0.156 o
0 4 9 44.918 43.346 1.260 0.636 o
0 4 10 42.605 42.705 1.322 0.577 o
0 4 11 5.917 5.605 0.195 26.487 o
0 4 12 97.032 101.052 3.457 0.084 o
0 4 13 13.781 14.397 0.472 4.523 o
0 4 14 4.454 4.347 0.170 34.760 o
0 4 15 4.312 4.697 0.184 29.850 o
0 4 16 23.601 24.363 0.790 1.617 o
0 4 17 0.146 0.197 0.063 253.558 o
0 4 18 0.027 0.044 0.061 267.078 o
0 4 19 3.555 3.519 0.160 39.349 o
0 4 20 0.275 0.419 0.067 222.141 o
0 4 21 0.268 0.284 0.064 245.106 o
0 4 22 0.333 0.365 0.077 172.136 o
0 4 23 1.816 1.524 0.112 81.004 o
0 4 24 1.883 2.172 0.123 66.188 o
0 4 25 0.000 0.126 0.070 205.382 o
0 4 26 0.430 0.411 0.079 162.833 o
0 4 27 0.870 0.807 0.078 165.087 o
0 4 28 1.318 1.409 0.120 70.428 o
0 4 29 0.047 0.155 0.085 140.815 o
0 4 30 0.034 0.044 0.125 65.047 o
0 5 1 19.481 18.720 0.592 2.879 o
0 5 2 61.754 60.666 1.900 0.279 o
0 5 3 130.221 125.057 3.992 0.063 o
0 5 4 23.239 22.265 0.719 1.950 o
0 5 5 41.831 41.956 1.257 0.639 o
0 5 6 0.956 0.881 0.046 469.301 o
0 5 7 6.653 6.473 0.201 25.082 o
0 5 8 7.435 7.003 0.223 20.251 o
0 5 9 10.993 11.568 0.369 7.419 o
0 5 10 29.363 27.330 0.865 1.349 o
0 5 11 7.008 6.772 0.217 21.478 o
0 5 12 0.163 0.223 0.050 401.313 o
0 5 13 4.309 4.546 0.221 20.648 o
0 5 14 15.935 15.834 0.519 3.743 o
0 5 15 2.396 2.404 0.106 89.437 o
0 5 16 1.113 1.284 0.080 158.462 o
0 5 17 3.789 4.104 0.151 43.958 o
0 5 18 0.659 0.869 0.089 127.491 o
0 5 19 0.208 0.323 0.067 225.738 o
0 5 20 0.100 0.217 0.068 218.629 o
0 5 21 0.176 0.080 0.096 109.549 o
0 5 22 1.172 1.043 0.091 122.979 o
0 5 23 0.090 0.312 0.073 190.450 o
0 5 24 0.653 0.747 0.076 174.586 o
0 5 25 0.050 -0.004 0.293 11.729 o
0 5 26 1.199 1.131 0.086 137.295 o
0 5 27 0.080 0.206 0.078 167.388 o
0 5 28 0.059 0.146 0.085 139.038 o
0 5 29 0.023 -0.260 0.472 4.523 o
0 6 0 27.427 24.920 0.881 1.300 o
0 6 1 41.160 39.351 1.147 0.767 o
0 6 2 5.503 5.189 0.161 38.825 o
0 6 3 7.953 7.329 0.257 15.255 o
0 6 4 3.057 2.828 0.108 86.774 o
0 6 5 25.278 23.884 0.796 1.593 o
0 6 6 40.494 39.293 1.205 0.694 o
0 6 7 24.163 23.946 0.742 1.831 o
0 6 8 8.028 7.535 0.263 14.575 o
0 6 9 2.590 2.750 0.112 81.004 o
0 6 10 28.898 28.923 0.880 1.303 o
0 6 11 0.014 -0.020 0.197 25.911 o
0 6 12 10.204 10.218 0.326 9.514 o
0 6 13 10.412 10.116 0.336 8.943 o
0 6 14 2.104 2.431 0.103 95.144 o
0 6 15 3.660 3.593 0.140 51.345 o
0 6 16 1.708 1.968 0.101 98.205 o
0 6 17 2.841 2.846 0.146 47.262 o
0 6 18 2.425 2.819 0.162 38.310 o
0 6 19 0.428 0.550 0.072 193.303 o
0 6 20 0.094 0.166 0.082 150.232 o
0 6 21 0.509 0.500 0.083 146.355 o
0 6 22 2.204 2.564 0.114 77.228 o
0 6 23 0.080 0.112 0.078 165.087 o
0 6 24 0.053 0.120 0.071 199.205 o
0 6 25 0.017 0.110 0.080 158.462 o
0 6 26 0.017 0.048 0.077 172.136 o
0 6 27 0.190 0.265 0.098 105.948 o
0 6 28 0.013 0.326 0.087 132.257 o
0 6 29 0.406 0.351 0.117 73.710 o
0 7 1 0.340 0.375 0.043 556.153 o
0 7 2 23.520 23.192 0.708 2.010 o
0 7 3 6.009 6.089 0.196 26.341 o
0 7 4 10.254 9.945 0.315 10.142 o
0 7 5 18.646 16.986 0.528 3.621 o
0 7 6 3.214 2.731 0.115 76.505 o
0 7 7 3.499 3.378 0.120 70.428 o
0 7 8 15.325 14.748 0.460 4.759 o
0 7 9 10.103 9.776 0.378 7.063 o
0 7 10 18.984 17.970 0.555 3.272 o
0 7 11 16.710 16.791 0.644 2.431 o
0 7 12 1.885 2.280 0.100 101.416 o
0 7 13 0.017 0.004 0.055 333.617 o
0 7 14 3.319 3.366 0.129 60.260 o
0 7 15 5.786 5.939 0.216 21.585 o
0 7 16 2.168 1.808 0.103 95.144 o
0 7 17 0.621 0.590 0.077 169.737 o
0 7 18 0.077 0.272 0.090 124.456 o
0 7 19 0.783 0.880 0.086 135.584 o
0 7 20 2.761 2.597 0.112 81.004 o
0 7 21 1.119 1.209 0.088 129.051 o
0 7 22 0.018 0.017 0.089 125.960 o
0 7 23 0.044 0.022 0.080 156.342 o
0 7 24 0.054 0.087 0.077 169.737 o
0 7 25 1.560 1.719 0.147 46.915 o
0 7 26 0.081 0.137 0.085 140.815 o
0 7 27 0.085 0.129 0.083 146.355 o
0 7 28 0.304 0.391 0.104 93.182 o
0 8 0 0.895 0.743 0.074 182.260 o
0 8 1 0.582 0.597 0.052 376.622 o
0 8 2 6.846 6.843 0.222 20.548 o
0 8 3 2.756 2.775 0.123 66.188 o
0 8 4 0.079 0.179 0.049 428.513 o
0 8 5 0.863 0.715 0.056 327.171 o
0 8 6 20.407 20.338 0.629 2.553 o
0 8 7 12.119 11.756 0.372 7.269 o
0 8 8 0.155 0.237 0.057 308.914 o
0 8 9 10.713 10.247 0.354 8.041 o
0 8 10 6.575 7.364 0.245 16.840 o
0 8 11 4.014 3.921 0.140 51.345 o
0 8 12 2.202 2.316 0.101 98.205 o
0 8 13 6.850 7.369 0.260 14.940 o
0 8 14 1.174 0.968 0.164 37.558 o
0 8 15 0.004 0.075 0.062 262.454 o
0 8 16 3.738 4.116 0.161 38.825 o
0 8 17 1.610 1.850 0.112 81.004 o
0 8 18 0.639 0.598 0.072 196.221 o
0 8 19 1.169 1.045 0.084 142.626 o
0 8 20 0.037 0.038 0.085 139.038 o
0 8 21 0.523 0.598 0.111 82.593 o
0 8 22 0.083 0.135 0.073 190.450 o
0 8 23 2.253 2.152 0.119 71.066 o
0 8 24 0.881 1.079 0.097 107.128 o
0 8 25 0.070 0.101 0.101 99.258 o
0 8 26 0.025 0.138 0.130 59.761 o
0 8 27 1.078 0.972 0.160 39.349 o
0 9 1 0.352 0.361 0.057 314.826 o
0 9 2 2.807 2.770 0.111 82.593 o
0 9 3 1.476 1.437 0.078 165.087 o
0 9 4 31.295 30.407 0.970 1.072 o
0 9 5 1.765 1.971 0.090 124.456 o
0 9 6 2.952 2.602 0.107 87.648 o
0 9 7 0.070 -0.018 0.240 17.449 o
0 9 8 23.143 24.468 0.760 1.746 o
0 9 9 2.896 2.850 0.120 70.428 o
0 9 10 7.085 6.482 0.231 18.948 o
0 9 11 1.503 1.437 0.098 104.787 o
0 9 12 2.653 3.094 0.121 68.562 o
0 9 13 0.517 0.535 0.069 211.850 o
0 9 14 6.021 5.659 0.239 17.607 o
0 9 15 1.624 1.636 0.120 69.797 o
0 9 16 0.366 0.467 0.072 196.221 o
0 9 17 0.037 0.118 0.067 225.738 o
0 9 18 0.149 0.195 0.080 156.342 o
0 9 19 1.543 1.824 0.115 76.505 o
0 9 20 0.579 0.681 0.095 112.053 o
0 9 21 0.525 0.554 0.075 179.647 o
0 9 22 1.225 1.176 0.114 77.228 o
0 9 23 0.528 0.690 0.096 109.549 o
0 9 24 0.262 0.325 0.113 79.461 o
0 9 25 0.385 0.319 0.105 91.281 o
0 10 0 28.315 28.178 1.074 0.874 o
0 10 1 4.192 4.186 0.152 43.647 o
0 10 2 1.492 1.563 0.086 137.295 o
0 10 3 0.307 0.239 0.064 245.106 o
0 10 4 14.353 14.746 0.477 4.442 o
0 10 5 5.493 5.394 0.191 27.542 o
0 10 6 3.031 2.748 0.115 76.505 o
0 10 7 0.335 0.460 0.102 96.148 o
0 10 8 2.169 2.036 0.111 81.793 o
0 10 9 1.767 1.638 0.095 110.790 o
0 10 10 0.393 0.426 0.067 225.738 o
0 10 11 0.634 0.642 0.118 72.370 o
0 10 12 0.237 0.247 0.078 165.087 o
0 10 13 0.001 0.057 0.075 177.089 o
0 10 14 0.552 0.644 0.072 196.221 o
0 10 15 0.472 0.564 0.072 196.221 o
0 10 16 0.013 0.063 0.074 184.930 o
0 10 17 0.714 0.839 0.082 148.274 o
0 10 18 2.098 2.308 0.126 63.389 o
0 10 19 0.134 0.208 0.072 196.221 o
0 10 20 0.456 0.548 0.123 66.188 o
0 10 21 0.552 0.653 0.092 120.102 o
0 10 22 1.307 1.358 0.120 70.428 o
0 10 23 0.002 0.158 0.103 95.144 o
0 10 24 0.261 0.281 0.107 88.536 o
0 11 1 2.264 2.489 0.109 85.064 o
0 11 2 14.653 15.253 0.484 4.314 o
0 11 3 6.159 5.996 0.205 23.911 o
0 11 4 0.023 0.090 0.069 211.850 o
0 11 5 0.099 0.170 0.081 152.228 o
0 11 6 0.977 1.192 0.086 137.295 o
0 11 7 6.246 5.745 0.203 24.551 o
0 11 8 0.169 0.144 0.086 137.295 o
0 11 9 0.373 0.542 0.079 160.625 o
0 11 10 0.647 0.512 0.073 187.660 o
0 11 11 2.241 2.200 0.150 44.912 o
0 11 12 0.056 0.112 0.072 196.221 o
0 11 13 1.291 1.466 0.089 125.960 o
0 11 14 0.417 0.460 0.077 169.737 o
0 11 15 0.078 0.169 0.072 193.303 o
0 11 16 1.346 1.209 0.082 150.232 o
0 11 17 0.910 0.998 0.087 133.905 o
0 11 18 0.031 0.156 0.093 115.973 o
0 11 19 0.040 0.083 0.088 130.639 o
0 11 20 0.969 1.044 0.126 63.389 o
0 11 21 0.162 0.010 0.138 52.962 o
0 11 22 0.000 0.173 0.121 69.175 o
0 12 0 0.303 0.289 0.180 31.114 o
0 12 1 2.103 2.139 0.119 71.714 o
0 12 2 0.098 0.178 0.075 177.089 o
0 12 3 0.683 0.784 0.079 162.833 o
0 12 4 0.009 0.038 0.073 190.450 o
0 12 5 3.141 2.790 0.134 56.435 o
0 12 6 0.231 0.409 0.075 179.647 o
0 12 7 0.010 0.116 0.074 184.930 o
0 12 8 0.517 0.438 0.082 148.274 o
0 12 9 2.574 2.350 0.107 88.536 o
0 12 10 0.093 0.103 0.073 190.450 o
0 12 11 0.866 0.782 0.077 172.136 o
0 12 12 0.076 0.009 0.088 130.639 o
0 12 13 0.780 0.645 0.079 160.625 o
0 12 14 0.078 0.132 0.072 193.303 o
0 12 15 0.999 1.023 0.100 100.328 o
0 12 16 0.041 0.073 0.084 144.473 o
0 12 17 0.055 0.236 0.086 137.295 o
0 12 18 0.008 -0.025 0.295 11.600 o
0 12 19 0.146 0.377 0.090 124.456 o
0 13 1 0.421 0.336 0.074 184.930 o
0 13 2 0.988 0.857 0.080 158.462 o
0 13 3 0.587 0.556 0.080 158.462 o
0 13 4 0.727 0.830 0.079 160.625 o
0 13 5 0.097 0.125 0.072 196.221 o
0 13 6 0.463 0.649 0.082 148.274 o
0 13 7 0.647 0.666 0.078 165.087 o
0 13 8 0.391 0.470 0.076 174.586 o
0 13 9 0.106 0.098 0.082 150.232 o
0 13 10 0.003 0.022 0.078 165.087 o
0 13 11 0.356 0.417 0.083 146.355 o
0 13 12 0.009 0.039 0.085 139.038 o
0 13 13 0.357 0.174 0.082 148.274 o
0 13 14 0.057 0.077 0.094 113.337 o
0 13 15 0.024 -0.075 0.327 9.420 o
0 13 16 0.243 0.204 0.088 129.051 o
0 14 0 0.054 0.225 0.109 84.228 o
0 14 1 0.022 0.140 0.083 146.355 o
0 14 2 0.030 0.108 0.082 148.274 o
0 14 3 0.028 0.134 0.078 165.087 o
0 14 4 0.047 0.005 0.080 156.342 o
0 14 5 0.044 0.050 0.080 158.462 o
0 14 6 0.031 0.398 0.083 146.355 o
0 14 7 0.000 -0.029 0.321 9.771 o
0 14 8 0.021 0.141 0.088 129.051 o
0 14 9 0.042 0.085 0.079 162.833 o
0 14 10 0.033 0.059 0.092 118.702 o
0 14 11 0.042 0.158 0.088 129.051 o
0 14 12 0.018 0.075 0.103 95.144 o
0 14 13 0.003 -0.066 0.297 11.433 o
0 15 1 0.005 0.204 0.089 125.960 o
0 15 2 0.140 0.178 0.090 124.456 o
0 15 3 0.001 0.089 0.088 130.639 o
0 15 4 0.019 -0.005 0.340 8.745 o
0 15 5 0.001 0.044 0.139 52.551 o
0 15 6 0.003 -0.077 0.302 11.068 o
0 15 7 0.003 0.096 0.124 65.614 o
1 0 1 733.704 757.505 26.161 0.001 o
1 0 2 117.437 116.796 3.326 0.091 o
1 0 3 647.617 692.278 20.921 0.002 o
1 0 4 80.851 81.271 2.391 0.176 o
1 0 5 0.001 0.009 0.021 2282.020 o
1 0 6 388.708 424.648 12.358 0.007 o
1 0 7 26.753 25.748 0.743 1.828 o
1 0 8 48.378 48.456 1.462 0.472 o
1 0 9 18.089 16.678 0.535 3.520 o
1 0 10 79.829 80.913 2.422 0.172 o
1 0 11 43.491 45.401 1.386 0.525 o
1 0 12 43.948 43.048 1.268 0.627 o
1 0 13 8.951 8.649 0.271 13.773 o
1 0 14 17.598 17.210 0.567 3.142 o
1 0 15 37.843 39.501 1.212 0.687 o
1 0 16 1.117 1.252 0.065 241.038 o
1 0 17 0.592 0.560 0.059 292.143 o
1 0 18 12.414 12.744 0.416 5.824 o
1 0 19 4.024 4.003 0.168 35.886 o
1 0 20 8.330 8.547 0.281 12.738 o
1 0 21 0.068 0.109 0.066 233.200 o
1 0 22 0.163 0.267 0.066 229.424 o
1 0 23 0.130 0.137 0.068 215.199 o
1 0 24 0.123 0.199 0.077 169.737 o
1 0 25 0.089 0.185 0.072 193.303 o
1 0 26 1.541 1.494 0.089 125.960 o
1 0 27 0.165 0.219 0.077 172.136 o
1 0 28 0.930 0.820 0.084 144.473 o
1 0 29 0.000 -0.128 0.358 7.849 o
1 0 30 0.215 0.312 0.115 75.792 o
1 0 31 0.001 0.213 0.094 113.337 o
1 1 0 53.586 63.815 2.108 0.227 o
1 1 1 135.145 141.619 4.197 0.057 o
1 1 2 114.578 120.632 4.221 0.057 o
1 1 3 1010.520 1049.940 30.422 0.001 o
1 1 4 137.380 147.204 4.108 0.060 o
1 1 5 380.567 412.730 12.212 0.007 o
1 1 6 17.922 18.458 0.611 2.699 o
1 1 7 264.014 264.352 7.717 0.017 o
1 1 8 164.208 164.688 4.943 0.041 o
1 1 9 169.918 174.718 5.145 0.038 o
1 1 10 85.021 84.477 2.574 0.152 o
1 1 11 8.253 9.061 0.281 12.787 o
1 1 12 3.138 3.276 0.119 71.714 o
1 1 13 68.225 69.436 2.089 0.231 o
1 1 14 9.058 9.155 0.287 12.264 o
1 1 15 25.988 27.093 0.884 1.291 o
1 1 16 23.619 23.841 0.750 1.791 o
1 1 17 8.874 8.895 0.296 11.516 o
1 1 18 8.890 9.235 0.338 8.829 o
1 1 19 2.642 2.737 0.125 64.487 o
1 1 20 1.193 1.140 0.076 174.586 o
1 1 21 0.077 0.068 0.064 249.278 o
1 1 22 5.269 5.097 0.178 31.873 o
1 1 23 1.125 1.068 0.085 140.815 o
1 1 24 3.080 2.969 0.128 61.277 o
1 1 25 0.281 0.351 0.074 184.930 o
1 1 26 0.009 0.103 0.085 140.815 o
1 1 27 0.921 1.072 0.082 148.274 o
1 1 28 1.247 1.066 0.100 101.416 o
1 1 29 0.033 0.267 0.094 114.644 o
1 1 30 0.359 0.348 0.083 146.355 o
1 1 31 0.123 0.182 0.096 109.549 o
1 2 0 0.383 0.291 0.022 2064.810 o
1 2 1 53.896 51.745 1.480 0.461 o
1 2 2 270.218 268.970 7.609 0.017 o
1 2 3 440.914 457.965 13.273 0.006 o
1 2 4 148.210 155.502 4.835 0.043 o
1 2 5 350.167 364.798 10.331 0.009 o
1 2 6 11.267 11.412 0.329 9.297 o
1 2 7 86.456 88.968 2.825 0.126 o
1 2 8 2.524 2.668 0.099 102.521 o
1 2 9 182.014 185.984 6.372 0.025 o
1 2 10 6.687 6.794 0.224 20.057 o
1 2 11 6.983 7.078 0.231 18.948 o
1 2 12 16.078 15.871 0.492 4.173 o
1 2 13 35.515 36.507 1.200 0.700 o
1 2 14 29.958 29.890 0.933 1.160 o
1 2 15 6.191 5.995 0.261 14.817 o
1 2 16 3.909 4.267 0.146 47.612 o
1 2 17 3.358 3.073 0.115 76.505 o
1 2 18 3.414 3.495 0.147 46.915 o
1 2 19 4.421 4.588 0.176 32.460 o
1 2 20 15.743 15.859 0.514 3.822 o
1 2 21 3.748 3.907 0.162 38.566 o
1 2 22 4.843 4.948 0.177 32.067 o
1 2 23 0.445 0.637 0.085 140.815 o
1 2 24 3.884 3.936 0.178 31.873 o
1 2 25 1.571 1.561 0.102 96.148 o
1 2 26 3.568 3.413 0.146 47.612 o
1 2 27 0.373 0.402 0.075 177.089 o
1 2 28 0.299 0.378 0.074 184.930 o
1 2 29 0.143 0.241 0.082 150.232 o
1 2 30 0.433 0.273 0.085 140.815 o
1 2 31 0.177 0.385 0.129 60.260 o
1 3 0 218.880 215.578 6.209 0.026 o
1 3 1 256.993 249.329 7.184 0.020 o
1 3 2 34.559 33.661 1.028 0.954 o
1 3 3 349.279 329.969 9.480 0.011 o
1 3 4 79.022 76.796 2.390 0.177 o
1 3 5 19.892 19.704 0.590 2.895 o
1 3 6 37.125 36.673 1.082 0.861 o
1 3 7 117.418 121.347 3.855 0.068 o
1 3 8 30.814 29.895 0.943 1.135 o
1 3 9 224.752 223.685 6.522 0.024 o
1 3 10 19.736 19.743 0.590 2.895 o
1 3 11 27.482 27.578 0.843 1.419 o
1 3 12 32.406 33.484 1.032 0.947 o
1 3 13 40.894 41.877 1.266 0.629 o
1 3 14 12.582 13.384 0.422 5.661 o
1 3 15 0.319 0.280 0.056 320.909 o
1 3 16 12.567 12.488 0.405 6.138 o
1 3 17 4.733 5.121 0.185 29.503 o
1 3 18 21.659 22.120 0.698 2.073 o
1 3 19 2.196 2.237 0.116 75.088 o
1 3 20 1.593 1.748 0.132 57.825 o
1 3 21 6.860 6.808 0.235 18.259 o
1 3 22 12.677 12.185 0.382 6.905 o
1 3 23 0.673 0.829 0.087 133.905 o
1 3 24 3.907 3.521 0.138 52.962 o
1 3 25 0.544 0.526 0.074 184.930 o
1 3 26 2.521 2.310 0.113 79.461 o
1 3 27 0.155 0.132 0.070 205.382 o
1 3 28 1.043 0.956 0.085 139.038 o
1 3 29 0.131 0.182 0.085 139.038 o
1 3 30 0.292 0.325 0.091 122.979 o
1 4 0 6.529 6.251 0.217 21.372 o
1 4 1 103.509 100.596 2.987 0.113 o
1 4 2 23.015 22.513 0.677 2.204 o
1 4 3 97.653 94.264 2.744 0.134 o
1 4 4 17.140 16.570 0.492 4.173 o
1 4 5 31.553 30.395 0.949 1.119 o
1 4 6 20.075 20.592 0.636 2.493 o
1 4 7 183.227 176.495 5.119 0.038 o
1 4 8 25.532 25.646 0.749 1.796 o
1 4 9 2.098 1.998 0.080 156.342 o
1 4 10 15.770 15.804 0.527 3.629 o
1 4 11 137.382 143.620 4.250 0.056 o
1 4 12 18.993 18.620 0.621 2.615 o
1 4 13 16.068 16.044 0.514 3.822 o
1 4 14 20.119 20.377 0.661 2.305 o
1 4 15 13.424 13.721 0.442 5.162 o
1 4 16 17.826 18.808 0.608 2.733 o
1 4 17 4.772 5.689 0.222 20.448 o
1 4 18 8.901 9.434 0.309 10.572 o
1 4 19 5.201 5.416 0.195 26.487 o
1 4 20 10.629 9.890 0.420 5.705 o
1 4 21 0.735 0.915 0.087 132.257 o
1 4 22 4.036 4.212 0.177 32.067 o
1 4 23 0.291 0.251 0.071 199.205 o
1 4 24 2.912 2.766 0.142 50.181 o
1 4 25 0.727 0.800 0.080 158.462 o
1 4 26 1.219 1.171 0.081 154.265 o
1 4 27 0.227 0.357 0.074 184.930 o
1 4 28 0.767 0.876 0.094 113.337 o
1 4 29 0.468 0.517 0.087 133.905 o
1 4 30 0.155 0.194 0.095 110.790 o
1 5 0 16.696 15.078 0.465 4.671 o
1 5 1 78.128 72.705 2.185 0.211 o
1 5 2 57.913 54.172 1.676 0.359 o
1 5 3 213.780 196.794 6.107 0.027 o
1 5 4 9.038 8.129 0.259 15.002 o
1 5 5 26.409 26.202 0.777 1.669 o
1 5 6 36.302 35.626 1.058 0.901 o
1 5 7 80.578 75.592 2.363 0.181 o
1 5 8 0.020 0.091 0.038 708.358 o
1 5 9 37.268 38.241 1.177 0.728 o
1 5 10 7.609 7.727 0.243 17.065 o
1 5 11 24.927 24.031 0.736 1.863 o
1 5 12 10.658 10.666 0.331 9.207 o
1 5 13 8.218 7.821 0.291 11.903 o
1 5 14 2.565 2.443 0.112 80.227 o
1 5 15 50.493 50.743 1.616 0.386 o
1 5 16 18.393 18.492 0.785 1.635 o
1 5 17 0.354 0.361 0.060 276.702 o
1 5 18 1.488 1.307 0.082 148.274 o
1 5 19 9.066 9.698 0.343 8.554 o
1 5 20 9.951 9.948 0.372 7.269 o
1 5 21 1.194 1.323 0.094 114.644 o
1 5 22 0.266 0.333 0.072 196.221 o
1 5 23 0.324 0.333 0.071 202.258 o
1 5 24 1.826 1.886 0.113 79.461 o
1 5 25 1.741 1.702 0.111 82.593 o
1 5 26 0.736 0.825 0.077 169.737 o
1 5 27 0.137 0.058 0.086 135.584 o
1 5 28 0.035 0.070 0.081 154.265 o
1 5 29 0.169 0.261 0.085 139.038 o
1 6 0 11.609 11.879 0.360 7.802 o
1 6 1 63.557 59.324 1.756 0.327 o
1 6 2 60.350 57.249 1.712 0.344 o
1 6 3 32.456 30.429 0.926 1.176 o
1 6 4 30.005 30.404 1.003 1.002 o
1 6 5 58.331 58.174 1.824 0.303 o
1 6 6 9.624 9.686 0.331 9.207 o
1 6 7 22.120 22.055 0.672 2.236 o
1 6 8 28.060 26.913 0.907 1.227 o
1 6 9 0.636 0.638 0.050 401.313 o
1 6 10 0.733 0.698 0.051 392.819 o
1 6 11 5.064 5.164 0.172 34.109 o
1 6 12 9.240 9.011 0.287 12.264 o
1 6 13 37.828 36.299 1.161 0.748 o
1 6 14 7.745 7.552 0.281 12.738 o
1 6 15 4.070 4.455 0.174 33.476 o
1 6 16 3.650 3.528 0.132 57.825 o
1 6 17 12.834 12.269 0.439 5.226 o
1 6 18 7.877 7.908 0.272 13.610 o
1 6 19 4.524 4.789 0.168 35.657 o
1 6 20 1.670 1.799 0.132 57.825 o
1 6 21 0.953 1.129 0.085 140.815 o
1 6 22 2.021 1.961 0.109 85.064 o
1 6 23 1.735 1.703 0.091 122.979 o
1 6 24 0.842 0.971 0.085 139.038 o
1 6 25 0.190 0.201 0.071 199.205 o
1 6 26 0.093 0.154 0.081 154.265 o
1 6 27 0.282 0.325 0.082 150.232 o
1 6 28 0.438 0.475 0.087 133.905 o
1 6 29 0.069 0.008 0.101 98.205 o
1 7 0 64.920 63.329 1.955 0.264 o
1 7 1 23.612 22.952 0.719 1.950 o
1 7 2 9.499 9.264 0.295 11.600 o
1 7 3 11.116 10.727 0.337 8.857 o
1 7 4 24.175 23.802 0.736 1.860 o
1 7 5 18.472 17.799 0.546 3.389 o
1 7 6 24.209 24.981 0.761 1.741 o
1 7 7 6.557 6.700 0.216 21.585 o
1 7 8 0.215 0.316 0.049 428.513 o
1 7 9 20.411 19.522 0.653 2.363 o
1 7 10 12.879 12.510 0.394 6.496 o
1 7 11 9.784 10.015 0.350 8.215 o
1 7 12 0.033 0.146 0.057 314.826 o
1 7 13 5.293 5.375 0.183 30.203 o
1 7 14 7.035 6.627 0.217 21.478 o
1 7 15 4.710 4.249 0.154 42.434 o
1 7 16 1.480 1.488 0.082 150.232 o
1 7 17 6.341 6.009 0.246 16.619 o
1 7 18 3.183 3.210 0.130 59.761 o
1 7 19 4.528 4.515 0.174 33.476 o
1 7 20 0.820 0.831 0.090 124.456 o
1 7 21 2.335 2.479 0.109 85.064 o
1 7 22 1.364 1.710 0.093 117.325 o
1 7 23 1.530 1.692 0.124 65.614 o
1 7 24 0.171 0.302 0.080 158.462 o
1 7 25 0.190 0.322 0.085 139.038 o
1 7 26 0.508 0.637 0.084 142.626 o
1 7 27 0.073 0.184 0.085 140.815 o
1 7 28 0.170 0.277 0.128 61.795 o
1 8 0 10.012 9.281 0.302 11.029 o
1 8 1 14.719 14.476 0.473 4.503 o
1 8 2 20.748 20.149 0.624 2.593 o
1 8 3 0.604 0.790 0.056 327.171 o
1 8 4 11.375 11.295 0.351 8.190 o
1 8 5 16.461 15.988 0.493 4.155 o
1 8 6 1.382 1.412 0.079 162.833 o
1 8 7 6.633 6.338 0.208 23.417 o
1 8 8 2.841 3.100 0.123 66.770 o
1 8 9 13.159 13.333 0.443 5.137 o
1 8 10 1.982 1.910 0.088 129.051 o
1 8 11 1.073 1.195 0.070 205.382 o
1 8 12 2.232 2.142 0.116 74.394 o
1 8 13 6.075 6.127 0.296 11.474 o
1 8 14 0.884 0.760 0.071 199.205 o
1 8 15 4.757 4.436 0.164 37.558 o
1 8 16 0.604 0.712 0.069 211.850 o
1 8 17 3.475 3.371 0.181 30.928 o
1 8 18 0.296 0.289 0.077 172.136 o
1 8 19 4.985 4.515 0.165 37.069 o
1 8 20 0.593 0.629 0.071 199.205 o
1 8 21 1.846 1.856 0.096 108.328 o
1 8 22 0.162 0.237 0.078 165.087 o
1 8 23 0.602 0.524 0.091 121.528 o
1 8 24 0.396 0.487 0.115 75.792 o
1 8 25 0.306 0.413 0.081 154.265 o
1 8 26 0.269 0.315 0.133 56.892 o
1 9 0 3.391 3.353 0.153 43.339 o
1 9 1 1.460 1.486 0.080 158.462 o
1 9 2 5.020 4.861 0.188 28.661 o
1 9 3 1.349 1.379 0.089 127.491 o
1 9 4 2.031 2.101 0.098 105.948 o
1 9 5 1.129 1.206 0.082 150.232 o
1 9 6 1.857 2.021 0.093 117.325 o
1 9 7 5.419 5.404 0.191 27.698 o
1 9 8 4.895 5.141 0.180 31.114 o
1 9 9 1.817 2.010 0.095 112.053 o
1 9 10 1.043 0.961 0.081 152.228 o
1 9 11 4.840 4.699 0.198 25.770 o
1 9 12 1.414 1.423 0.082 150.232 o
1 9 13 7.515 8.207 0.288 12.172 o
1 9 14 1.692 1.736 0.099 102.521 o
1 9 15 0.420 0.492 0.087 132.257 o
1 9 16 0.080 0.056 0.071 199.205 o
1 9 17 4.310 4.367 0.197 25.911 o
1 9 18 0.026 0.068 0.073 187.660 o
1 9 19 0.295 0.306 0.070 208.578 o
1 9 20 0.200 0.249 0.072 193.303 o
1 9 21 0.354 0.321 0.074 184.930 o
1 9 22 0.110 0.077 0.083 146.355 o
1 9 23 0.334 0.390 0.085 139.038 o
1 9 24 0.200 0.236 0.084 142.626 o
1 9 25 0.258 0.268 0.099 103.645 o
1 10 0 1.191 1.302 0.082 148.274 o
1 10 1 7.070 7.187 0.280 12.836 o
1 10 2 0.856 0.807 0.077 169.737 o
1 10 3 2.662 2.741 0.115 75.792 o
1 10 4 1.892 1.804 0.106 90.352 o
1 10 5 1.874 1.858 0.095 112.053 o
1 10 6 4.851 4.746 0.171 34.541 o
1 10 7 0.654 0.502 0.073 190.450 o
1 10 8 0.208 0.223 0.063 257.948 o
1 10 9 1.064 0.833 0.070 205.382 o
1 10 10 2.047 2.201 0.098 104.787 o
1 10 11 3.482 3.576 0.157 40.989 o
1 10 12 1.243 1.039 0.088 130.639 o
1 10 13 2.205 2.013 0.146 47.262 o
1 10 14 0.026 0.091 0.070 208.578 o
1 10 15 1.834 2.183 0.116 74.394 o
1 10 16 0.313 0.387 0.069 211.850 o
1 10 17 0.254 0.364 0.079 162.833 o
1 10 18 0.241 0.303 0.073 187.660 o
1 10 19 0.314 0.337 0.074 182.260 o
1 10 20 0.172 0.233 0.080 158.462 o
1 10 21 0.101 0.157 0.085 140.815 o
1 10 22 0.059 0.067 0.098 104.787 o
1 10 23 0.221 0.374 0.087 132.257 o
1 11 0 0.001 -0.038 0.273 13.556 o
1 11 1 3.100 3.035 0.149 45.565 o
1 11 2 0.989 1.154 0.089 127.491 o
1 11 3 0.308 0.471 0.073 190.450 o
1 11 4 0.924 0.789 0.077 169.737 o
1 11 5 2.500 2.455 0.108 85.912 o
1 11 6 0.280 0.317 0.110 83.404 o
1 11 7 1.565 1.648 0.096 108.328 o
1 11 8 1.194 1.059 0.087 132.257 o
1 11 9 0.291 0.443 0.080 158.462 o
1 11 10 0.179 0.315 0.080 156.342 o
1 11 11 1.345 1.303 0.092 120.102 o
1 11 12 0.060 0.149 0.066 229.424 o
1 11 13 0.629 0.554 0.079 160.625 o
1 11 14 0.342 0.323 0.073 187.660 o
1 11 15 0.009 0.048 0.071 199.205 o
1 11 16 0.244 0.261 0.074 182.260 o
1 11 17 0.384 0.477 0.074 184.930 o
1 11 18 0.296 0.488 0.087 132.257 o
1 11 19 0.224 0.317 0.087 133.905 o
1 11 20 0.025 0.112 0.084 144.473 o
1 11 21 0.048 0.183 0.085 139.038 o
1 11 22 0.038 0.099 0.099 103.645 o
1 12 0 0.977 1.015 0.081 152.228 o
1 12 1 0.254 0.384 0.072 193.303 o
1 12 2 0.357 0.188 0.074 182.260 o
1 12 3 1.212 1.127 0.084 142.626 o
1 12 4 0.390 0.534 0.087 133.905 o
1 12 5 1.880 1.965 0.100 101.416 o
1 12 6 0.200 0.229 0.074 182.260 o
1 12 7 1.662 1.628 0.095 112.053 o
1 12 8 0.030 -0.010 0.295 11.558 o
1 12 9 0.921 1.020 0.103 94.156 o
1 12 10 0.235 0.233 0.071 199.205 o
1 12 11 0.509 0.524 0.073 187.660 o
1 12 12 0.250 0.302 0.090 124.456 o
1 12 13 0.175 0.213 0.091 121.528 o
1 12 14 0.333 0.265 0.074 182.260 o
1 12 15 0.069 0.029 0.080 158.462 o
1 12 16 0.268 0.560 0.088 130.639 o
1 12 17 0.399 0.316 0.084 142.626 o
1 12 18 0.071 0.155 0.092 118.702 o
1 12 19 0.013 0.006 0.106 90.352 o
1 13 0 0.321 0.259 0.075 177.089 o
1 13 1 0.166 0.228 0.092 118.702 o
1 13 2 0.540 0.416 0.079 160.625 o
1 13 3 0.203 0.231 0.079 162.833 o
1 13 4 0.293 0.356 0.092 118.702 o
1 13 5 0.284 0.294 0.077 172.136 o
1 13 6 0.098 0.297 0.073 190.450 o
1 13 7 0.590 0.676 0.075 177.089 o
1 13 8 0.379 0.361 0.073 187.660 o
1 13 9 0.100 0.264 0.073 190.450 o
1 13 10 0.030 0.102 0.081 154.265 o
1 13 11 0.225 0.232 0.098 105.948 o
1 13 12 0.383 0.396 0.103 95.144 o
1 13 13 0.287 0.388 0.082 150.232 o
1 13 14 0.048 0.114 0.080 158.462 o
1 13 15 0.111 0.180 0.085 140.815 o
1 13 16 0.111 0.172 0.126 63.389 o
1 14 0 0.269 0.229 0.081 152.228 o
1 14 1 0.096 0.227 0.082 150.232 o
1 14 2 0.046 0.070 0.079 162.833 o
1 14 3 0.002 0.153 0.079 160.625 o
1 14 4 0.190 0.246 0.080 158.462 o
1 14 5 0.066 0.176 0.079 160.625 o
1 14 6 0.185 0.295 0.094 113.337 o
1 14 7 0.371 0.353 0.106 90.352 o
1 14 8 0.082 0.141 0.086 137.295 o
1 14 9 0.027 0.145 0.086 135.584 o
1 14 10 0.224 0.034 0.097 107.128 o
1 14 11 0.720 0.707 0.154 42.733 o
1 14 12 0.008 0.068 0.100 101.416 o
1 15 0 0.212 0.006 0.089 127.491 o
1 15 1 0.016 0.062 0.098 105.948 o
1 15 2 0.096 0.385 0.091 122.979 o
1 15 3 0.015 0.084 0.096 108.328 o
1 15 4 0.154 0.294 0.098 104.787 o
1 15 5 0.078 0.033 0.091 121.528 o
1 15 6 0.099 0.211 0.091 121.528 o
2 0 0 2889.150 3186.410 115.707 0.000 o
2 0 1 483.247 507.397 17.057 0.003 o
2 0 2 169.185 178.743 5.067 0.039 o
2 0 3 53.392 52.164 1.508 0.444 o
2 0 4 164.015 169.256 5.026 0.040 o
2 0 5 475.569 493.594 14.895 0.005 o
2 0 6 70.710 73.034 2.078 0.234 o
2 0 7 5.240 4.886 0.153 43.034 o
2 0 8 72.629 72.530 2.117 0.225 o
2 0 9 16.744 16.643 0.526 3.644 o
2 0 10 27.258 28.062 0.859 1.368 o
2 0 11 54.872 56.709 1.691 0.353 o
2 0 12 11.697 11.948 0.355 8.017 o
2 0 13 11.029 10.758 0.367 7.506 o
2 0 14 7.382 7.383 0.237 18.010 o
2 0 15 84.343 86.902 2.666 0.142 o
2 0 16 0.974 0.947 0.057 314.826 o
2 0 17 27.548 26.554 0.818 1.508 o
2 0 18 4.104 4.277 0.153 43.339 o
2 0 19 33.812 34.121 1.097 0.838 o
2 0 20 0.042 0.061 0.061 267.078 o
2 0 21 16.895 16.243 0.532 3.570 o
2 0 22 3.146 3.192 0.125 64.487 o
2 0 23 2.420 2.351 0.111 81.793 o
2 0 24 0.066 0.073 0.072 196.221 o
2 0 25 5.603 5.506 0.190 28.013 o
2 0 26 0.097 0.234 0.072 196.221 o
2 0 27 0.683 0.667 0.094 113.337 o
2 0 28 0.025 -0.044 0.300 11.228 o
2 0 29 1.001 0.868 0.102 96.148 o
2 0 30 0.002 0.181 0.079 162.833 o
2 0 31 1.144 0.877 0.118 72.370 o
2 1 0 2971.930 3161.620 92.347 0.000 o
2 1 1 48.001 42.926 1.269 0.626 o
2 1 2 553.178 599.028 21.135 0.002 o
2 1 3 152.853 159.193 4.455 0.051 o
2 1 4 938.508 969.067 27.468 0.001 o
2 1 5 14.176 14.029 0.412 5.931 o
2 1 6 170.036 174.122 5.426 0.034 o
2 1 7 113.877 117.403 3.488 0.083 o
2 1 8 4.452 4.411 0.144 48.326 o
2 1 9 44.225 44.932 1.392 0.521 o
2 1 10 34.640 35.304 1.059 0.900 o
2 1 11 57.945 59.357 1.704 0.347 o
2 1 12 53.230 53.623 1.644 0.373 o
2 1 13 67.896 70.342 2.092 0.231 o
2 1 14 25.541 27.559 0.849 1.399 o
2 1 15 12.240 11.808 0.369 7.397 o
2 1 16 9.093 8.976 0.295 11.600 o
2 1 17 32.156 32.824 1.030 0.951 o
2 1 18 27.213 27.718 0.882 1.295 o
2 1 19 13.569 13.738 0.441 5.175 o
2 1 20 1.216 1.263 0.078 165.087 o
2 1 21 4.678 4.558 0.195 26.634 o
2 1 22 5.518 5.324 0.184 29.850 o
2 1 23 9.973 9.826 0.333 9.118 o
2 1 24 0.267 0.370 0.082 148.274 o
2 1 25 0.135 0.077 0.071 202.258 o
2 1 26 0.201 0.211 0.072 196.221 o
2 1 27 3.042 2.893 0.115 75.792 o
2 1 28 0.020 0.097 0.072 196.221 o
2 1 29 1.031 0.968 0.091 122.979 o
2 1 30 0.056 0.176 0.087 133.905 o
2 1 31 0.280 0.337 0.102 97.168 o
2 2 0 1.720 1.741 0.063 257.948 o
2 2 1 275.506 289.171 9.855 0.010 o
2 2 2 925.098 985.178 28.867 0.001 o
2 2 3 100.144 102.404 3.454 0.085 o
2 2 4 80.312 81.093 2.656 0.143 o
2 2 5 5.524 5.206 0.158 40.431 o
2 2 6 213.267 222.684 6.591 0.023 o
2 2 7 80.191 81.269 2.696 0.139 o
2 2 8 109.235 109.186 3.204 0.098 o
2 2 9 79.461 83.180 2.420 0.172 o
2 2 10 2.545 2.657 0.088 129.051 o
2 2 11 38.491 38.765 1.132 0.787 o
2 2 12 39.899 39.085 1.230 0.667 o
2 2 13 35.775 36.354 1.124 0.798 o
2 2 14 12.657 12.722 0.442 5.162 o
2 2 15 14.927 15.044 0.480 4.382 o
2 2 16 29.298 28.829 0.935 1.153 o
2 2 17 0.180 0.254 0.069 211.850 o
2 2 18 2.428 2.696 0.150 44.590 o
2 2 19 0.884 0.889 0.070 205.382 o
2 2 20 6.827 6.155 0.209 23.175 o
2 2 21 6.339 6.766 0.257 15.255 o
2 2 22 0.982 1.076 0.101 99.258 o
2 2 23 0.188 0.175 0.078 165.087 o
2 2 24 0.797 0.817 0.081 154.265 o
2 2 25 4.909 4.568 0.171 34.541 o
2 2 26 0.752 0.779 0.077 172.136 o
2 2 27 0.541 0.546 0.080 156.342 o
2 2 28 0.127 0.163 0.085 140.815 o
2 2 29 0.733 0.758 0.086 135.584 o
2 2 30 0.265 0.236 0.105 92.224 o
2 2 31 0.293 0.295 0.094 114.644 o
2 3 0 0.178 0.161 0.022 2064.810 o
2 3 1 169.821 172.943 5.054 0.039 o
2 3 2 194.758 192.476 5.831 0.030 o
2 3 3 181.551 183.625 5.454 0.034 o
2 3 4 68.355 67.502 2.117 0.225 o
2 3 5 205.489 196.753 6.311 0.025 o
2 3 6 433.336 438.666 13.157 0.006 o
2 3 7 9.197 9.890 0.314 10.212 o
2 3 8 50.864 53.281 1.579 0.404 o
2 3 9 31.217 30.755 0.906 1.230 o
2 3 10 143.074 142.848 4.361 0.053 o
2 3 11 24.759 24.262 0.735 1.868 o
2 3 12 47.959 49.523 1.533 0.429 o
2 3 13 5.534 5.820 0.188 28.661 o
2 3 14 5.857 5.673 0.236 18.093 o
2 3 15 4.173 3.994 0.140 51.743 o
2 3 16 10.842 11.353 0.361 7.732 o
2 3 17 3.731 4.041 0.148 45.897 o
2 3 18 0.712 0.716 0.075 179.647 o
2 3 19 1.489 1.596 0.089 125.960 o
2 3 20 3.374 3.412 0.142 50.181 o
2 3 21 0.066 0.144 0.071 199.205 o
2 3 22 0.125 0.178 0.073 190.450 o
2 3 23 1.996 2.087 0.109 84.228 o
2 3 24 3.040 2.886 0.117 73.710 o
2 3 25 0.272 0.388 0.072 193.303 o
2 3 26 0.208 0.226 0.074 184.930 o
2 3 27 0.614 0.654 0.074 184.930 o
2 3 28 0.735 0.741 0.080 156.342 o
2 3 29 0.172 0.312 0.084 142.626 o
2 3 30 0.331 0.450 0.091 122.979 o
2 4 0 19.171 19.791 0.598 2.817 o
2 4 1 170.360 166.716 4.933 0.041 o
2 4 2 1.568 1.355 0.051 384.593 o
2 4 3 68.410 68.656 1.985 0.256 o
2 4 4 126.621 124.550 3.657 0.075 o
2 4 5 101.339 101.941 2.983 0.113 o
2 4 6 13.283 12.281 0.368 7.441 o
2 4 7 110.337 106.164 3.059 0.108 o
2 4 8 86.612 84.728 2.491 0.162 o
2 4 9 7.929 7.898 0.250 16.122 o
2 4 10 23.150 23.495 0.755 1.771 o
2 4 11 9.697 9.680 0.313 10.282 o
2 4 12 14.236 14.857 0.463 4.715 o
2 4 13 0.968 1.036 0.067 225.738 o
2 4 14 5.783 6.028 0.197 25.911 o
2 4 15 2.805 2.849 0.111 82.593 o
2 4 16 3.205 3.341 0.142 50.181 o
2 4 17 4.862 5.195 0.183 30.203 o
2 4 18 2.641 2.880 0.110 83.404 o
2 4 19 3.063 3.295 0.162 38.566 o
2 4 20 1.090 1.016 0.090 124.456 o
2 4 21 0.845 0.920 0.075 179.647 o
2 4 22 1.750 1.682 0.100 100.328 o
2 4 23 1.863 1.918 0.112 81.004 o
2 4 24 0.036 0.166 0.090 124.456 o
2 4 25 0.098 0.030 0.077 169.737 o
2 4 26 0.329 0.415 0.077 169.737 o
2 4 27 0.354 0.330 0.077 172.136 o
2 4 28 0.277 0.340 0.083 146.355 o
2 4 29 0.121 0.060 0.095 110.790 o
2 4 30 0.009 -0.037 0.338 8.829 o
2 5 0 172.156 164.463 4.810 0.044 o
2 5 1 96.143 92.743 2.690 0.139 o
2 5 2 10.408 10.680 0.322 9.739 o
2 5 3 139.369 137.367 3.997 0.063 o
2 5 4 44.364 43.466 1.314 0.584 o
2 5 5 29.338 27.560 0.817 1.512 o
2 5 6 2.821 2.880 0.114 77.228 o
2 5 7 9.026 9.095 0.281 12.738 o
2 5 8 9.910 9.534 0.323 9.674 o
2 5 9 11.286 11.141 0.348 8.317 o
2 5 10 0.617 0.617 0.044 516.203 o
2 5 11 2.767 2.707 0.102 96.148 o
2 5 12 37.490 37.511 1.137 0.780 o
2 5 13 0.556 0.547 0.058 297.578 o
2 5 14 1.756 1.984 0.084 144.473 o
2 5 15 1.528 1.463 0.091 122.979 o
2 5 16 16.128 17.308 0.568 3.124 o
2 5 17 5.286 5.113 0.174 33.476 o
2 5 18 1.688 1.811 0.115 75.792 o
2 5 19 3.450 3.401 0.149 45.565 o
2 5 20 0.988 0.896 0.072 193.303 o
2 5 21 4.508 4.681 0.170 34.760 o
2 5 22 0.096 0.204 0.071 202.258 o
2 5 23 0.180 0.139 0.073 187.660 o
2 5 24 0.204 0.245 0.070 205.382 o
2 5 25 0.839 0.953 0.091 121.528 o
2 5 26 0.083 0.120 0.085 140.815 o
2 5 27 0.024 -0.031 0.291 11.947 o
2 5 28 0.159 0.332 0.084 142.626 o
2 5 29 0.217 0.255 0.085 139.038 o
2 6 0 0.105 0.116 0.041 600.927 o
2 6 1 59.478 59.452 1.774 0.320 o
2 6 2 90.337 88.223 2.636 0.145 o
2 6 3 4.055 4.004 0.130 59.761 o
2 6 4 1.957 2.014 0.077 169.737 o
2 6 5 14.697 14.079 0.430 5.451 o
2 6 6 6.078 6.298 0.204 24.164 o
2 6 7 4.904 5.078 0.164 37.312 o
2 6 8 11.277 11.144 0.392 6.549 o
2 6 9 5.331 5.270 0.168 35.657 o
2 6 10 34.122 33.931 1.015 0.979 o
2 6 11 2.315 2.382 0.092 118.702 o
2 6 12 8.697 8.656 0.276 13.241 o
2 6 13 4.435 4.573 0.162 38.310 o
2 6 14 23.300 23.529 0.802 1.570 o
2 6 15 1.728 1.872 0.085 139.038 o
2 6 16 2.652 2.759 0.106 89.437 o
2 6 17 2.824 2.956 0.118 73.036 o
2 6 18 1.896 1.834 0.108 86.774 o
2 6 19 1.335 1.186 0.081 154.265 o
2 6 20 0.173 0.149 0.078 167.388 o
2 6 21 0.506 0.579 0.079 160.625 o
2 6 22 0.179 0.198 0.070 205.382 o
2 6 23 0.629 0.524 0.098 104.787 o
2 6 24 0.181 0.342 0.078 167.388 o
2 6 25 0.273 0.329 0.075 179.647 o
2 6 26 0.151 0.198 0.082 148.274 o
2 6 27 0.044 0.066 0.088 129.051 o
2 6 28 0.090 0.135 0.106 90.352 o
2 7 0 8.999 8.882 0.278 13.036 o
2 7 1 2.196 2.111 0.080 156.342 o
2 7 2 12.415 12.207 0.378 7.043 o
2 7 3 6.296 6.124 0.197 26.053 o
2 7 4 4.860 4.668 0.163 37.806 o
2 7 5 15.784 15.219 0.470 4.565 o
2 7 6 62.030 61.037 1.834 0.300 o
2 7 7 0.740 0.685 0.061 267.078 o
2 7 8 8.839 8.272 0.265 14.339 o
2 7 9 3.540 3.717 0.162 38.310 o
2 7 10 41.671 42.039 1.262 0.633 o
2 7 11 5.780 5.557 0.190 28.013 o
2 7 12 11.193 11.424 0.407 6.089 o
2 7 13 1.034 0.989 0.068 218.629 o
2 7 14 3.917 4.091 0.165 36.828 o
2 7 15 2.862 2.813 0.112 80.227 o
2 7 16 2.230 2.471 0.101 98.205 o
2 7 17 0.476 0.534 0.064 245.106 o
2 7 18 0.490 0.684 0.075 179.647 o
2 7 19 0.052 0.127 0.075 177.089 o
2 7 20 0.024 0.052 0.070 205.382 o
2 7 21 0.006 0.110 0.068 218.629 o
2 7 22 0.691 0.793 0.096 108.328 o
2 7 23 0.348 0.471 0.121 68.562 o
2 7 24 0.062 0.123 0.079 162.833 o
2 7 25 0.033 0.144 0.083 146.355 o
2 7 26 0.031 0.054 0.087 133.905 o
2 7 27 0.091 0.241 0.098 104.787 o
2 8 0 0.028 0.030 0.046 469.301 o
2 8 1 1.820 1.721 0.074 182.260 o
2 8 2 6.027 5.779 0.201 24.948 o
2 8 3 10.932 10.752 0.351 8.165 o
2 8 4 36.641 35.486 1.087 0.853 o
2 8 5 0.125 0.119 0.050 401.313 o
2 8 6 7.810 7.481 0.240 17.449 o
2 8 7 9.590 9.658 0.311 10.425 o
2 8 8 39.216 38.352 1.200 0.700 o
2 8 9 1.623 1.548 0.086 137.295 o
2 8 10 4.175 3.739 0.144 48.326 o
2 8 11 2.972 3.110 0.119 71.714 o
2 8 12 4.321 4.926 0.188 28.661 o
2 8 13 1.133 1.036 0.093 115.973 o
2 8 14 1.706 1.783 0.085 140.815 o
2 8 15 1.558 1.591 0.089 127.491 o
2 8 16 1.444 1.489 0.082 148.274 o
2 8 17 0.336 0.409 0.077 172.136 o
2 8 18 0.321 0.327 0.068 215.199 o
2 8 19 0.206 0.345 0.070 205.382 o
2 8 20 0.860 0.928 0.081 152.228 o
2 8 21 0.374 0.409 0.077 169.737 o
2 8 22 0.297 0.421 0.073 187.660 o
2 8 23 0.203 0.255 0.080 158.462 o
2 8 24 0.004 -0.065 0.380 6.983 o
2 8 25 0.208 0.143 0.095 110.790 o
2 8 26 0.061 0.084 0.094 114.644 o
2 9 0 18.982 19.619 0.633 2.514 o
2 9 1 3.259 3.200 0.125 65.047 o
2 9 2 0.577 0.655 0.064 249.278 o
2 9 3 0.548 0.592 0.060 281.710 o
2 9 4 16.056 16.254 0.513 3.838 o
2 9 5 9.550 9.027 0.288 12.127 o
2 9 6 2.024 1.999 0.101 99.258 o
2 9 7 1.958 1.824 0.109 85.064 o
2 9 8 2.121 2.140 0.099 102.521 o
2 9 9 9.347 8.986 0.318 9.971 o
2 9 10 0.234 0.269 0.064 249.278 o
2 9 11 1.943 2.079 0.119 71.066 o
2 9 12 1.962 2.288 0.104 93.182 o
2 9 13 2.866 3.008 0.130 59.268 o
2 9 14 1.393 1.303 0.081 154.265 o
2 9 15 0.678 0.785 0.082 150.232 o
2 9 16 1.940 2.322 0.130 59.761 o
2 9 17 0.132 0.232 0.068 215.199 o
2 9 18 0.646 0.646 0.073 190.450 o
2 9 19 0.876 0.778 0.079 160.625 o
2 9 20 0.209 0.303 0.069 211.850 o
2 9 21 0.011 0.105 0.072 196.221 o
2 9 22 0.026 0.093 0.078 165.087 o
2 9 23 0.849 0.911 0.088 130.639 o
2 9 24 0.125 0.239 0.079 160.625 o
2 9 25 0.101 0.128 0.092 118.702 o
2 10 0 4.403 4.432 0.162 38.566 o
2 10 1 1.891 1.914 0.108 85.912 o
2 10 2 6.049 6.240 0.219 21.057 o
2 10 3 3.947 3.924 0.164 37.558 o
2 10 4 1.588 1.531 0.105 91.281 o
2 10 5 0.848 0.871 0.075 177.089 o
2 10 6 0.716 0.713 0.073 187.660 o
2 10 7 4.551 4.268 0.155 42.139 o
2 10 8 0.646 0.663 0.079 162.833 o
2 10 9 0.511 0.485 0.071 202.258 o
2 10 10 5.021 4.840 0.169 35.429 o
2 10 11 2.641 2.697 0.128 61.277 o
2 10 12 0.147 0.328 0.073 187.660 o
2 10 13 0.227 0.341 0.085 140.815 o
2 10 14 3.548 3.700 0.145 47.967 o
2 10 15 1.148 1.230 0.102 97.168 o
2 10 16 0.207 0.257 0.070 208.578 o
2 10 17 0.775 0.632 0.079 160.625 o
2 10 18 0.256 0.320 0.075 179.647 o
2 10 19 0.371 0.474 0.074 182.260 o
2 10 20 0.061 0.187 0.080 158.462 o
2 10 21 0.706 0.760 0.084 142.626 o
2 10 22 0.518 0.386 0.084 142.626 o
2 10 23 0.142 0.183 0.086 137.295 o
2 11 0 0.622 0.681 0.082 148.274 o
2 11 1 0.338 0.320 0.087 133.905 o
2 11 2 1.950 1.975 0.109 85.064 o
2 11 3 0.709 0.756 0.078 167.388 o
2 11 4 1.303 1.418 0.100 101.416 o
2 11 5 0.138 0.220 0.068 218.629 o
2 11 6 0.133 0.221 0.074 184.930 o
2 11 7 0.590 0.679 0.079 160.625 o
2 11 8 2.522 2.286 0.108 86.774 o
2 11 9 0.226 0.312 0.079 160.625 o
2 11 10 0.235 0.229 0.082 150.232 o
2 11 11 0.551 0.588 0.108 86.774 o
2 11 12 1.392 1.265 0.092 120.102 o
2 11 13 0.584 0.524 0.071 199.205 o
2 11 14 0.285 0.323 0.073 190.450 o
2 11 15 0.366 0.480 0.071 199.205 o
2 11 16 0.048 0.034 0.072 196.221 o
2 11 17 0.625 0.672 0.089 125.960 o
2 11 18 0.957 1.193 0.092 118.702 o
2 11 19 0.146 0.168 0.081 152.228 o
2 11 20 0.298 0.275 0.082 150.232 o
2 11 21 0.250 0.320 0.116 75.088 o
2 12 0 0.002 0.221 0.071 202.258 o
2 12 1 0.067 0.111 0.070 205.382 o
2 12 2 2.356 2.470 0.152 43.647 o
2 12 3 0.311 0.321 0.069 211.850 o
2 12 4 0.857 0.908 0.078 167.388 o
2 12 5 0.178 0.207 0.072 196.221 o
2 12 6 0.977 1.129 0.082 150.232 o
2 12 7 0.171 0.214 0.074 182.260 o
2 12 8 0.740 0.624 0.078 167.388 o
2 12 9 0.726 0.689 0.080 158.462 o
2 12 10 0.245 0.227 0.075 179.647 o
2 12 11 0.003 0.056 0.075 177.089 o
2 12 12 0.198 0.148 0.074 184.930 o
2 12 13 0.291 0.401 0.075 177.089 o
2 12 14 0.025 0.098 0.074 182.260 o
2 12 15 0.113 0.259 0.078 165.087 o
2 12 16 1.282 1.348 0.100 101.416 o
2 12 17 0.015 0.005 0.078 165.087 o
2 12 18 0.005 0.108 0.085 139.038 o
2 12 19 0.061 0.105 0.087 132.257 o
2 13 0 0.054 0.042 0.076 174.586 o
2 13 1 0.518 0.539 0.078 167.388 o
2 13 2 0.372 0.453 0.078 167.388 o
2 13 3 0.159 0.374 0.074 182.260 o
2 13 4 0.137 0.282 0.076 174.586 o
2 13 5 0.483 0.532 0.083 146.355 o
2 13 6 0.292 0.287 0.081 154.265 o
2 13 7 0.022 0.146 0.080 156.342 o
2 13 8 0.073 0.174 0.080 158.462 o
2 13 9 0.136 0.239 0.105 92.224 o
2 13 10 0.092 0.265 0.084 142.626 o
2 13 11 0.175 0.159 0.087 132.257 o
2 13 12 0.140 0.217 0.107 88.536 o
2 13 13 0.016 0.171 0.095 112.053 o
2 13 14 0.362 0.459 0.086 137.295 o
2 13 15 0.164 0.201 0.094 114.644 o
2 13 16 0.135 0.271 0.093 117.325 o
2 14 0 0.016 0.189 0.080 158.462 o
2 14 1 0.260 0.234 0.127 62.851 o
2 14 2 0.230 0.386 0.084 142.626 o
2 14 3 0.358 0.329 0.107 87.648 o
2 14 4 0.051 0.191 0.087 133.905 o
2 14 5 0.122 0.049 0.087 132.257 o
2 14 6 0.005 0.008 0.093 117.325 o
2 14 7 0.203 0.165 0.099 103.645 o
2 14 8 0.054 0.267 0.129 60.765 o
2 14 9 0.150 0.171 0.087 132.257 o
2 14 10 0.144 0.319 0.109 85.064 o
2 14 11 0.046 0.126 0.098 105.948 o
2 14 12 0.019 -0.072 0.292 11.859 o
2 15 0 0.056 0.120 0.085 139.038 o
2 15 1 0.099 0.213 0.086 135.584 o
2 15 2 0.058 0.288 0.095 110.790 o
2 15 3 0.070 0.215 0.098 104.787 o
2 15 4 0.013 0.089 0.097 107.128 o
2 15 5 0.102 0.179 0.108 86.774 o
3 0 1 87.356 85.612 2.811 0.128 o
3 0 2 137.602 136.545 4.129 0.059 o
3 0 3 185.341 191.931 5.999 0.028 o
3 0 4 579.566 593.980 17.399 0.003 o
3 0 5 56.196 58.216 1.672 0.361 o
3 0 6 226.527 230.299 6.625 0.023 o
3 0 7 17.782 16.394 0.570 3.101 o
3 0 8 29.992 30.411 0.930 1.166 o
3 0 9 87.659 90.455 2.627 0.146 o
3 0 10 29.535 29.429 0.911 1.215 o
3 0 11 38.162 39.525 1.160 0.749 o
3 0 12 65.582 68.803 2.075 0.234 o
3 0 13 69.733 69.986 2.082 0.233 o
3 0 14 7.548 7.184 0.228 19.398 o
3 0 15 30.487 31.160 0.949 1.121 o
3 0 16 54.844 56.276 1.709 0.345 o
3 0 17 18.407 18.797 0.710 2.001 o
3 0 18 5.339 5.211 0.184 29.675 o
3 0 19 0.178 0.138 0.070 208.578 o
3 0 20 12.639 12.121 0.590 2.900 o
3 0 21 0.807 0.860 0.080 158.462 o
3 0 22 0.106 0.123 0.063 253.558 o
3 0 23 4.312 4.237 0.161 38.825 o
3 0 24 2.415 2.574 0.117 73.710 o
3 0 25 0.274 0.275 0.076 174.586 o
3 0 26 0.257 0.341 0.076 174.586 o
3 0 27 2.083 2.095 0.129 60.765 o
3 0 28 0.168 0.194 0.075 177.089 o
3 0 29 0.204 0.429 0.089 127.491 o
3 0 30 0.662 0.556 0.114 77.962 o
3 1 0 30.547 33.240 0.970 1.072 o
3 1 1 254.675 268.091 7.952 0.016 o
3 1 2 193.672 206.735 6.566 0.023 o
3 1 3 79.726 79.051 2.329 0.186 o
3 1 4 78.381 83.732 2.391 0.176 o
3 1 5 22.496 22.584 0.671 2.239 o
3 1 6 99.881 99.382 2.863 0.123 o
3 1 7 3.151 3.268 0.101 99.258 o
3 1 8 181.694 183.213 5.416 0.034 o
3 1 9 18.305 18.491 0.557 3.246 o
3 1 10 55.314 57.163 1.671 0.361 o
3 1 11 10.035 10.023 0.305 10.873 o
3 1 12 17.683 17.746 0.573 3.072 o
3 1 13 21.331 21.709 0.685 2.149 o
3 1 14 51.412 51.181 1.562 0.413 o
3 1 15 15.682 15.530 0.485 4.295 o
3 1 16 2.170 2.058 0.084 142.626 o
3 1 17 7.306 7.556 0.251 15.984 o
3 1 18 9.990 9.936 0.322 9.739 o
3 1 19 7.908 8.227 0.267 14.109 o
3 1 20 1.351 1.401 0.081 154.265 o
3 1 21 4.388 4.463 0.163 37.806 o
3 1 22 2.375 2.343 0.125 65.047 o
3 1 23 0.632 0.652 0.082 148.274 o
3 1 24 0.952 1.028 0.100 101.416 o
3 1 25 1.865 1.880 0.113 79.461 o
3 1 26 0.758 0.870 0.103 94.156 o
3 1 27 0.150 0.253 0.073 190.450 o
3 1 28 1.154 1.196 0.087 133.905 o
3 1 29 0.249 0.310 0.081 152.228 o
3 1 30 0.024 -0.001 0.394 6.513 o
3 2 0 105.606 108.323 3.130 0.103 o
3 2 1 103.319 102.712 2.928 0.118 o
3 2 2 329.054 327.208 9.480 0.011 o
3 2 3 345.426 349.878 10.477 0.009 o
3 2 4 46.519 46.489 1.573 0.408 o
3 2 5 199.762 204.445 7.208 0.019 o
3 2 6 59.533 62.112 1.802 0.311 o
3 2 7 86.963 87.490 2.594 0.150 o
3 2 8 70.003 69.254 2.057 0.238 o
3 2 9 185.861 188.414 5.550 0.033 o
3 2 10 126.693 126.117 3.760 0.071 o
3 2 11 13.565 13.045 0.423 5.633 o
3 2 12 40.041 39.663 1.188 0.715 o
3 2 13 19.002 18.540 0.575 3.054 o
3 2 14 16.213 16.224 0.519 3.751 o
3 2 15 6.726 7.134 0.241 17.294 o
3 2 16 1.519 1.522 0.080 158.462 o
3 2 17 3.855 3.765 0.140 51.743 o
3 2 18 0.740 0.707 0.061 267.078 o
3 2 19 6.321 6.387 0.214 22.023 o
3 2 20 0.414 0.433 0.064 249.278 o
3 2 21 6.550 6.640 0.226 19.771 o
3 2 22 1.329 1.297 0.105 92.224 o
3 2 23 0.518 0.541 0.079 160.625 o
3 2 24 0.185 0.272 0.078 167.388 o
3 2 25 1.107 1.081 0.085 139.038 o
3 2 26 1.343 1.324 0.084 144.473 o
3 2 27 0.233 0.345 0.074 184.930 o
3 2 28 0.247 0.177 0.092 118.702 o
3 2 29 0.281 0.335 0.096 108.328 o
3 2 30 0.550 0.555 0.093 115.973 o
3 3 0 195.755 200.010 5.862 0.029 o
3 3 1 165.377 167.784 4.992 0.040 o
3 3 2 10.617 10.228 0.312 10.389 o
3 3 3 141.792 141.307 4.081 0.061 o
3 3 4 12.800 12.761 0.394 6.513 o
3 3 5 140.707 141.868 4.242 0.056 o
3 3 6 2.097 1.948 0.072 196.221 o
3 3 7 184.550 179.893 5.993 0.028 o
3 3 8 26.327 26.541 0.793 1.602 o
3 3 9 21.006 21.220 0.636 2.497 o
3 3 10 5.692 5.955 0.187 28.993 o
3 3 11 43.323 43.367 1.299 0.598 o
3 3 12 12.217 12.365 0.399 6.321 o
3 3 13 6.596 6.904 0.229 19.307 o
3 3 14 3.457 3.533 0.123 66.188 o
3 3 15 1.381 1.340 0.067 225.738 o
3 3 16 0.279 0.250 0.056 320.909 o
3 3 17 2.274 2.622 0.115 75.792 o
3 3 18 0.133 0.098 0.057 308.914 o
3 3 19 3.138 3.251 0.144 48.688 o
3 3 20 0.839 0.913 0.074 184.930 o
3 3 21 0.103 0.280 0.070 208.578 o
3 3 22 0.803 0.860 0.091 121.528 o
3 3 23 3.889 4.023 0.148 45.897 o
3 3 24 0.557 0.508 0.072 196.221 o
3 3 25 0.349 0.264 0.070 208.578 o
3 3 26 0.848 0.933 0.123 66.188 o
3 3 27 1.095 1.212 0.117 73.710 o
3 3 28 0.167 0.326 0.084 144.473 o
3 3 29 0.246 0.321 0.090 124.456 o
3 3 30 0.082 0.211 0.086 137.295 o
3 4 0 14.536 13.255 0.440 5.213 o
3 4 1 157.910 154.194 4.550 0.049 o
3 4 2 8.615 8.910 0.275 13.345 o
3 4 3 274.587 271.976 7.833 0.016 o
3 4 4 84.087 82.619 2.433 0.170 o
3 4 5 53.772 51.614 1.544 0.423 o
3 4 6 3.813 3.758 0.121 69.175 o
3 4 7 26.229 25.899 0.757 1.761 o
3 4 8 49.186 47.953 1.526 0.433 o
3 4 9 9.755 10.356 0.366 7.529 o
3 4 10 4.829 4.787 0.153 43.339 o
3 4 11 14.533 15.044 0.474 4.482 o
3 4 12 13.678 13.850 0.446 5.063 o
3 4 13 4.021 4.357 0.147 46.572 o
3 4 14 8.070 8.179 0.277 13.189 o
3 4 15 18.797 19.741 0.626 2.571 o
3 4 16 3.695 3.925 0.144 48.326 o
3 4 17 0.493 0.507 0.067 225.738 o
3 4 18 6.172 6.422 0.220 20.749 o
3 4 19 3.608 3.884 0.168 35.886 o
3 4 20 1.251 1.346 0.084 144.473 o
3 4 21 4.293 4.497 0.172 33.896 o
3 4 22 4.663 4.596 0.163 37.806 o
3 4 23 0.024 0.009 0.070 208.578 o
3 4 24 1.632 1.718 0.090 124.456 o
3 4 25 2.124 2.048 0.096 109.549 o
3 4 26 0.841 0.723 0.097 107.128 o
3 4 27 0.124 0.072 0.084 142.626 o
3 4 28 0.590 0.558 0.084 144.473 o
3 4 29 0.211 0.270 0.088 130.639 o
3 5 0 6.468 7.109 0.215 21.802 o
3 5 1 115.362 112.840 3.342 0.090 o
3 5 2 25.143 24.662 0.734 1.871 o
3 5 3 4.622 4.691 0.154 42.733 o
3 5 4 0.253 0.385 0.039 669.551 o
3 5 5 31.983 32.764 0.973 1.065 o
3 5 6 28.238 28.488 0.845 1.412 o
3 5 7 28.033 27.957 0.825 1.481 o
3 5 8 5.376 5.116 0.168 35.886 o
3 5 9 6.662 6.750 0.209 23.056 o
3 5 10 15.163 15.283 0.468 4.596 o
3 5 11 14.495 14.805 0.471 4.554 o
3 5 12 8.988 8.976 0.336 8.914 o
3 5 13 9.389 9.032 0.279 12.936 o
3 5 14 9.348 9.740 0.320 9.837 o
3 5 15 3.182 3.410 0.127 62.851 o
3 5 16 13.350 13.684 0.459 4.782 o
3 5 17 3.230 3.199 0.139 52.551 o
3 5 18 2.087 2.149 0.114 77.228 o
3 5 19 1.496 1.513 0.091 121.528 o
3 5 20 11.036 11.415 0.371 7.312 o
3 5 21 1.365 1.612 0.122 67.957 o
3 5 22 0.296 0.355 0.075 177.089 o
3 5 23 0.858 0.777 0.073 190.450 o
3 5 24 2.405 2.092 0.126 63.935 o
3 5 25 0.879 0.786 0.087 132.257 o
3 5 26 0.711 0.699 0.092 118.702 o
3 5 27 0.103 0.171 0.090 124.456 o
3 5 28 0.056 0.170 0.081 152.228 o
3 5 29 0.159 0.218 0.087 133.905 o
3 6 0 1.141 1.026 0.052 368.897 o
3 6 1 32.786 31.981 0.971 1.069 o
3 6 2 12.845 12.414 0.395 6.460 o
3 6 3 80.519 78.894 2.433 0.170 o
3 6 4 10.811 10.328 0.318 10.005 o
3 6 5 7.048 7.050 0.218 21.266 o
3 6 6 5.976 5.934 0.188 28.661 o
3 6 7 26.552 26.679 0.796 1.591 o
3 6 8 5.253 5.683 0.185 29.503 o
3 6 9 10.243 10.102 0.341 8.690 o
3 6 10 0.180 0.237 0.046 480.409 o
3 6 11 1.319 1.331 0.093 115.973 o
3 6 12 6.377 6.355 0.201 24.948 o
3 6 13 1.936 1.845 0.082 148.274 o
3 6 14 8.207 8.787 0.288 12.172 o
3 6 15 5.481 5.859 0.205 24.037 o
3 6 16 6.486 6.712 0.263 14.635 o
3 6 17 3.130 3.084 0.145 47.967 o
3 6 18 9.241 9.346 0.315 10.177 o
3 6 19 7.432 7.975 0.268 14.052 o
3 6 20 0.684 0.630 0.094 114.644 o
3 6 21 1.712 1.867 0.094 113.337 o
3 6 22 2.364 2.541 0.106 89.437 o
3 6 23 2.048 1.878 0.096 108.328 o
3 6 24 0.262 0.381 0.078 165.087 o
3 6 25 0.134 -0.011 0.303 10.989 o
3 6 26 0.180 0.408 0.082 150.232 o
3 6 27 0.366 0.422 0.087 132.257 o
3 6 28 0.386 0.408 0.106 90.352 o
3 7 0 7.626 7.626 0.248 16.403 o
3 7 1 44.759 43.612 1.331 0.569 o
3 7 2 10.303 9.991 0.312 10.389 o
3 7 3 3.407 3.503 0.121 69.175 o
3 7 4 10.684 10.655 0.325 9.578 o
3 7 5 39.999 40.103 1.200 0.700 o
3 7 6 8.770 8.438 0.266 14.223 o
3 7 7 5.133 5.348 0.172 34.109 o
3 7 8 8.938 8.692 0.269 13.940 o
3 7 9 3.179 3.566 0.134 55.982 o
3 7 10 1.437 1.301 0.064 245.106 o
3 7 11 1.134 1.141 0.066 229.424 o
3 7 12 3.505 3.650 0.132 57.825 o
3 7 13 3.730 3.855 0.145 47.967 o
3 7 14 9.203 9.540 0.310 10.462 o
3 7 15 4.585 4.229 0.150 44.912 o
3 7 16 2.301 2.538 0.143 49.055 o
3 7 17 5.642 5.408 0.183 30.026 o
3 7 18 2.152 1.986 0.121 68.562 o
3 7 19 3.437 3.267 0.127 62.320 o
3 7 20 0.645 0.605 0.069 211.850 o
3 7 21 1.571 1.627 0.091 122.979 o
3 7 22 0.105 0.174 0.071 202.258 o
3 7 23 0.726 0.778 0.074 184.930 o
3 7 24 0.122 0.283 0.081 152.228 o
3 7 25 0.285 0.415 0.085 140.815 o
3 7 26 0.312 0.284 0.096 109.549 o
3 7 27 0.052 0.105 0.102 97.168 o
3 8 0 19.060 18.775 0.572 3.078 o
3 8 1 2.827 2.980 0.121 69.175 o
3 8 2 1.419 1.482 0.072 193.303 o
3 8 3 11.419 11.271 0.353 8.115 o
3 8 4 10.551 10.790 0.340 8.745 o
3 8 5 1.281 1.385 0.071 199.205 o
3 8 6 11.442 11.650 0.378 7.043 o
3 8 7 3.443 3.377 0.126 63.389 o
3 8 8 6.224 6.233 0.216 21.694 o
3 8 9 5.953 6.261 0.213 22.246 o
3 8 10 13.921 13.234 0.438 5.264 o
3 8 11 0.201 0.381 0.071 202.258 o
3 8 12 10.548 10.957 0.360 7.802 o
3 8 13 5.716 5.999 0.197 25.911 o
3 8 14 2.753 2.727 0.108 86.774 o
3 8 15 0.013 -0.010 0.259 15.065 o
3 8 16 2.220 2.450 0.115 76.505 o
3 8 17 1.255 1.291 0.108 85.912 o
3 8 18 0.196 0.251 0.075 179.647 o
3 8 19 0.038 0.107 0.065 237.071 o
3 8 20 0.041 0.100 0.067 225.738 o
3 8 21 0.385 0.403 0.072 193.303 o
3 8 22 0.140 0.221 0.069 211.850 o
3 8 23 0.043 -0.003 0.308 10.609 o
3 8 24 0.200 0.252 0.095 110.790 o
3 8 25 0.158 0.385 0.080 158.462 o
3 8 26 0.087 0.123 0.090 124.456 o
3 9 0 1.324 1.365 0.082 150.232 o
3 9 1 8.487 8.398 0.281 12.738 o
3 9 2 12.267 11.961 0.382 6.924 o
3 9 3 1.088 1.199 0.094 114.644 o
3 9 4 2.916 3.188 0.121 69.175 o
3 9 5 4.332 4.317 0.153 43.034 o
3 9 6 6.006 5.963 0.206 23.662 o
3 9 7 1.461 1.276 0.081 154.265 o
3 9 8 14.204 13.712 0.462 4.726 o
3 9 9 0.034 0.129 0.062 262.454 o
3 9 10 7.361 7.245 0.333 9.088 o
3 9 11 1.857 1.948 0.093 115.973 o
3 9 12 5.569 5.394 0.206 23.786 o
3 9 13 0.779 0.616 0.075 179.647 o
3 9 14 3.034 3.312 0.132 57.825 o
3 9 15 0.118 0.172 0.075 179.647 o
3 9 16 0.039 0.043 0.066 229.424 o
3 9 17 0.499 0.491 0.070 205.382 o
3 9 18 0.117 0.280 0.067 225.738 o
3 9 19 0.682 0.606 0.073 190.450 o
3 9 20 0.478 0.517 0.071 202.258 o
3 9 21 0.035 0.138 0.072 196.221 o
3 9 22 0.030 0.073 0.078 165.087 o
3 9 23 0.315 0.253 0.096 109.549 o
3 9 24 0.169 0.171 0.085 140.815 o
3 10 0 2.394 2.397 0.105 92.224 o
3 10 1 0.249 0.299 0.066 233.200 o
3 10 2 1.919 2.127 0.102 96.148 o
3 10 3 0.237 0.341 0.068 218.629 o
3 10 4 1.522 1.651 0.089 127.491 o
3 10 5 0.500 0.615 0.067 222.141 o
3 10 6 6.302 6.376 0.213 22.246 o
3 10 7 0.798 0.967 0.072 196.221 o
3 10 8 0.116 0.066 0.063 253.558 o
3 10 9 0.729 0.792 0.072 196.221 o
3 10 10 2.376 2.572 0.149 45.236 o
3 10 11 0.263 0.346 0.067 222.141 o
3 10 12 2.006 1.847 0.094 114.644 o
3 10 13 1.174 1.294 0.092 120.102 o
3 10 14 0.184 0.295 0.071 202.258 o
3 10 15 0.037 0.122 0.064 245.106 o
3 10 16 1.139 1.178 0.078 167.388 o
3 10 17 0.824 0.721 0.077 172.136 o
3 10 18 0.881 0.879 0.075 177.089 o
3 10 19 0.047 0.184 0.070 208.578 o
3 10 20 0.267 0.408 0.080 156.342 o
3 10 21 0.349 0.486 0.084 142.626 o
3 10 22 0.164 0.127 0.085 140.815 o
3 10 23 0.002 -0.025 0.355 8.017 o
3 11 0 1.140 1.212 0.083 146.355 o
3 11 1 1.948 1.962 0.100 101.416 o
3 11 2 0.720 0.727 0.080 158.462 o
3 11 3 0.230 0.247 0.084 144.473 o
3 11 4 2.047 2.158 0.107 87.648 o
3 11 5 1.974 2.101 0.105 91.281 o
3 11 6 1.381 1.499 0.095 112.053 o
3 11 7 0.660 0.661 0.080 158.462 o
3 11 8 0.916 1.036 0.080 158.462 o
3 11 9 0.340 0.223 0.073 187.660 o
3 11 10 0.748 0.818 0.079 162.833 o
3 11 11 0.842 0.735 0.106 89.437 o
3 11 12 0.121 0.227 0.070 208.578 o
3 11 13 0.811 0.770 0.084 142.626 o
3 11 14 1.282 1.181 0.081 152.228 o
3 11 15 0.280 0.467 0.072 196.221 o
3 11 16 0.666 0.646 0.082 148.274 o
3 11 17 0.594 0.598 0.075 179.647 o
3 11 18 0.411 0.399 0.081 154.265 o
3 11 19 0.228 0.258 0.082 148.274 o
3 11 20 0.279 0.227 0.100 100.328 o
3 11 21 0.132 0.068 0.096 109.549 o
3 12 0 0.010 -0.001 0.293 11.729 o
3 12 1 0.663 0.830 0.103 95.144 o
3 12 2 0.208 0.281 0.083 146.355 o
3 12 3 0.720 0.799 0.087 132.257 o
3 12 4 0.211 0.198 0.074 184.930 o
3 12 5 0.299 0.291 0.077 169.737 o
3 12 6 0.332 0.319 0.078 167.388 o
3 12 7 0.344 0.603 0.084 144.473 o
3 12 8 0.375 0.434 0.082 150.232 o
3 12 9 0.298 0.379 0.106 90.352 o
3 12 10 0.073 0.162 0.073 190.450 o
3 12 11 0.576 0.518 0.075 177.089 o
3 12 12 0.692 0.827 0.083 146.355 o
3 12 13 0.187 0.333 0.071 199.205 o
3 12 14 0.051 0.084 0.073 187.660 o
3 12 15 0.479 0.492 0.091 121.528 o
3 12 16 0.156 0.191 0.082 148.274 o
3 12 17 0.095 0.180 0.088 130.639 o
3 12 18 0.155 0.054 0.095 110.790 o
3 13 0 0.931 0.934 0.098 105.948 o
3 13 1 0.232 0.310 0.074 182.260 o
3 13 2 0.369 0.375 0.074 182.260 o
3 13 3 0.493 0.610 0.077 169.737 o
3 13 4 0.388 0.446 0.083 146.355 o
3 13 5 0.339 0.339 0.075 179.647 o
3 13 6 0.029 -0.007 0.433 5.370 o
3 13 7 1.198 1.077 0.095 110.790 o
3 13 8 0.145 0.094 0.074 184.930 o
3 13 9 0.200 0.241 0.107 87.648 o
3 13 10 0.138 0.172 0.081 154.265 o
3 13 11 0.721 0.794 0.085 139.038 o
3 13 12 0.096 0.125 0.097 107.128 o
3 13 13 0.111 0.043 0.093 115.973 o
3 13 14 0.117 0.163 0.112 81.004 o
3 13 15 0.073 0.137 0.139 52.551 o
3 14 0 0.557 0.526 0.080 156.342 o
3 14 1 0.151 0.204 0.080 156.342 o
3 14 2 0.157 0.205 0.086 137.295 o
3 14 3 0.079 0.162 0.103 94.156 o
3 14 4 0.296 0.344 0.089 127.491 o
3 14 5 0.307 0.367 0.081 152.228 o
3 14 6 0.137 0.133 0.080 156.342 o
3 14 7 0.020 0.204 0.081 154.265 o
3 14 8 0.043 0.125 0.082 148.274 o
3 14 9 0.151 0.116 0.107 87.648 o
3 14 10 0.097 0.189 0.108 86.774 o
3 14 11 0.007 0.143 0.118 72.370 o
3 15 0 0.000 0.212 0.092 120.102 o
3 15 1 0.074 0.265 0.100 101.416 o
3 15 2 0.168 0.158 0.088 130.639 o
3 15 3 0.026 0.081 0.122 67.957 o
4 0 0 159.576 170.211 7.099 0.020 o
4 0 1 23.768 23.807 1.414 0.504 o
4 0 2 70.961 77.554 2.292 0.192 o
4 0 3 4.817 5.160 0.158 40.156 o
4 0 4 176.296 181.592 5.373 0.035 o
4 0 5 1.514 1.533 0.063 257.948 o
4 0 6 40.976 40.836 1.210 0.689 o
4 0 7 17.012 16.516 0.502 3.996 o
4 0 8 41.828 41.922 1.239 0.657 o
4 0 9 5.580 5.527 0.169 35.429 o
4 0 10 58.281 58.044 1.730 0.337 o
4 0 11 43.449 43.024 1.302 0.595 o
4 0 12 23.392 23.543 0.710 1.998 o
4 0 13 3.707 3.839 0.133 56.892 o
4 0 14 53.248 54.028 1.626 0.382 o
4 0 15 15.919 15.505 0.481 4.353 o
4 0 16 32.183 32.026 0.997 1.014 o
4 0 17 0.467 0.438 0.058 303.166 o
4 0 18 2.118 2.233 0.096 108.328 o
4 0 19 1.775 1.942 0.093 115.973 o
4 0 20 0.563 0.575 0.074 184.930 o
4 0 21 0.040 0.040 0.067 225.738 o
4 0 22 0.225 0.347 0.077 172.136 o
4 0 23 0.114 0.106 0.078 165.087 o
4 0 24 1.530 1.551 0.108 86.774 o
4 0 25 0.305 0.343 0.071 199.205 o
4 0 26 0.003 0.160 0.077 169.737 o
4 0 27 0.001 0.008 0.081 152.228 o
4 0 28 0.104 0.164 0.100 100.328 o
4 0 29 0.135 0.137 0.084 144.473 o
4 0 30 0.045 -0.009 0.296 11.516 o
4 1 0 282.256 283.986 8.633 0.014 o
4 1 1 194.470 210.863 7.557 0.018 o
4 1 2 22.404 22.670 0.773 1.688 o
4 1 3 16.852 17.487 0.605 2.752 o
4 1 4 90.258 87.498 2.637 0.145 o
4 1 5 60.644 59.914 1.783 0.317 o
4 1 6 95.886 96.786 2.857 0.124 o
4 1 7 49.965 50.573 1.583 0.402 o
4 1 8 40.455 40.375 1.214 0.684 o
4 1 9 1.357 1.168 0.055 333.617 o
4 1 10 9.280 9.427 0.286 12.310 o
4 1 11 28.953 28.094 0.873 1.324 o
4 1 12 74.904 76.566 2.252 0.199 o
4 1 13 11.085 11.250 0.362 7.686 o
4 1 14 19.514 19.597 0.595 2.853 o
4 1 15 0.784 0.921 0.063 257.948 o
4 1 16 5.824 5.752 0.246 16.692 o
4 1 17 7.636 7.740 0.257 15.255 o
4 1 18 12.523 12.772 0.404 6.187 o
4 1 19 6.266 6.480 0.223 20.349 o
4 1 20 1.555 1.635 0.087 132.257 o
4 1 21 2.032 1.974 0.092 118.702 o
4 1 22 2.230 2.417 0.111 82.593 o
4 1 23 1.265 1.367 0.092 120.102 o
4 1 24 0.143 0.333 0.071 199.205 o
4 1 25 0.104 0.162 0.073 187.660 o
4 1 26 0.639 0.794 0.090 124.456 o
4 1 27 0.069 0.042 0.075 179.647 o
4 1 28 0.185 0.045 0.081 154.265 o
4 1 29 0.009 0.009 0.085 140.815 o
4 1 30 0.059 0.050 0.089 127.491 o
4 2 0 37.427 40.387 1.204 0.695 o
4 2 1 76.385 79.345 2.718 0.136 o
4 2 2 104.238 101.907 3.339 0.090 o
4 2 3 109.159 115.981 3.788 0.070 o
4 2 4 6.364 6.543 0.218 21.266 o
4 2 5 37.231 36.742 1.093 0.844 o
4 2 6 80.943 79.135 2.407 0.174 o
4 2 7 62.935 64.229 1.925 0.272 o
4 2 8 66.038 65.397 1.921 0.273 o
4 2 9 23.880 23.718 0.703 2.038 o
4 2 10 88.536 88.925 2.603 0.149 o
4 2 11 20.010 20.605 0.623 2.602 o
4 2 12 3.080 3.071 0.105 91.281 o
4 2 13 1.524 1.652 0.076 174.586 o
4 2 14 5.215 5.200 0.174 33.476 o
4 2 15 2.935 3.015 0.133 57.356 o
4 2 16 8.981 9.303 0.332 9.147 o
4 2 17 9.389 9.308 0.360 7.802 o
4 2 18 6.470 6.525 0.223 20.251 o
4 2 19 1.967 2.006 0.100 100.328 o
4 2 20 3.683 3.716 0.149 45.236 o
4 2 21 2.490 2.303 0.100 101.416 o
4 2 22 2.388 2.451 0.120 69.797 o
4 2 23 2.099 2.089 0.125 65.047 o
4 2 24 0.390 0.346 0.084 144.473 o
4 2 25 0.190 0.218 0.070 208.578 o
4 2 26 0.179 0.224 0.073 187.660 o
4 2 27 0.369 0.458 0.078 167.388 o
4 2 28 0.071 0.088 0.081 154.265 o
4 2 29 0.386 0.409 0.089 125.960 o
4 2 30 0.370 0.367 0.094 114.644 o
4 3 0 13.225 13.713 0.409 6.025 o
4 3 1 81.228 82.748 2.457 0.167 o
4 3 2 16.898 16.324 0.545 3.396 o
4 3 3 51.739 50.959 1.536 0.427 o
4 3 4 18.116 18.742 0.590 2.900 o
4 3 5 173.088 175.201 5.349 0.035 o
4 3 6 50.006 49.645 1.523 0.435 o
4 3 7 36.741 37.219 1.162 0.747 o
4 3 8 33.758 33.256 1.031 0.949 o
4 3 9 38.604 38.898 1.154 0.758 o
4 3 10 7.028 6.879 0.229 19.307 o
4 3 11 17.309 17.798 0.539 3.471 o
4 3 12 11.824 11.818 0.368 7.441 o
4 3 13 29.401 29.348 0.928 1.172 o
4 3 14 8.405 8.753 0.310 10.498 o
4 3 15 13.795 13.556 0.435 5.330 o
4 3 16 4.069 3.955 0.142 49.801 o
4 3 17 4.693 5.098 0.177 32.263 o
4 3 18 6.772 6.802 0.245 16.766 o
4 3 19 3.764 4.013 0.151 43.958 o
4 3 20 3.826 3.675 0.142 49.801 o
4 3 21 3.533 3.520 0.138 52.962 o
4 3 22 0.896 0.999 0.087 132.257 o
4 3 23 0.921 0.875 0.076 174.586 o
4 3 24 0.157 0.223 0.071 199.205 o
4 3 25 3.561 3.469 0.140 51.345 o
4 3 26 0.256 0.348 0.072 196.221 o
4 3 27 0.888 0.924 0.121 68.562 o
4 3 28 0.250 0.199 0.082 148.274 o
4 3 29 0.452 0.504 0.093 117.325 o
4 4 0 44.991 41.739 1.252 0.643 o
4 4 1 67.742 67.342 1.989 0.255 o
4 4 2 45.569 46.374 1.352 0.551 o
4 4 3 55.601 56.004 1.674 0.360 o
4 4 4 28.183 26.689 0.800 1.576 o
4 4 5 43.432 41.692 1.334 0.567 o
4 4 6 35.937 36.587 1.123 0.799 o
4 4 7 19.184 19.142 0.598 2.822 o
4 4 8 1.719 1.841 0.079 162.833 o
4 4 9 2.180 2.328 0.087 132.257 o
4 4 10 12.658 12.497 0.417 5.809 o
4 4 11 8.591 8.805 0.278 13.036 o
4 4 12 33.405 34.455 1.112 0.816 o
4 4 13 8.005 8.377 0.275 13.293 o
4 4 14 1.183 1.206 0.114 77.228 o
4 4 15 7.290 7.202 0.240 17.528 o
4 4 16 22.060 22.543 0.698 2.073 o
4 4 17 9.808 10.531 0.336 8.914 o
4 4 18 0.348 0.316 0.077 169.737 o
4 4 19 2.362 2.546 0.111 81.793 o
4 4 20 5.971 6.072 0.236 18.175 o
4 4 21 1.389 1.578 0.095 112.053 o
4 4 22 0.420 0.331 0.078 167.388 o
4 4 23 6.385 6.287 0.245 16.840 o
4 4 24 2.628 2.592 0.133 57.356 o
4 4 25 0.332 0.511 0.085 140.815 o
4 4 26 0.315 0.434 0.077 169.737 o
4 4 27 1.289 1.288 0.125 64.487 o
4 4 28 0.347 0.447 0.097 107.128 o
4 4 29 0.250 0.396 0.093 117.325 o
4 5 0 0.320 0.502 0.038 708.358 o
4 5 1 35.294 33.751 0.998 1.012 o
4 5 2 13.760 13.920 0.418 5.764 o
4 5 3 18.692 19.052 0.577 3.032 o
4 5 4 9.967 10.320 0.322 9.739 o
4 5 5 3.346 3.430 0.146 47.262 o
4 5 6 11.255 11.488 0.346 8.421 o
4 5 7 8.173 7.764 0.277 13.138 o
4 5 8 32.789 32.098 1.159 0.751 o
4 5 9 4.194 4.142 0.133 57.356 o
4 5 10 42.778 43.496 1.290 0.606 o
4 5 11 7.896 8.180 0.258 15.191 o
4 5 12 20.929 20.903 0.717 1.962 o
4 5 13 3.090 3.149 0.111 82.593 o
4 5 14 27.005 27.060 0.835 1.447 o
4 5 15 4.576 4.522 0.161 39.086 o
4 5 16 3.518 3.774 0.137 53.379 o
4 5 17 3.157 3.616 0.140 51.345 o
4 5 18 6.902 7.006 0.241 17.294 o
4 5 19 8.942 9.384 0.316 10.073 o
4 5 20 0.459 0.418 0.075 177.089 o
4 5 21 6.314 6.471 0.212 22.359 o
4 5 22 3.041 2.828 0.141 50.565 o
4 5 23 0.916 0.928 0.089 125.960 o
4 5 24 0.734 0.621 0.077 169.737 o
4 5 25 1.436 1.446 0.090 124.456 o
4 5 26 0.681 0.578 0.096 109.549 o
4 5 27 0.298 0.406 0.106 90.352 o
4 5 28 0.583 0.587 0.091 121.528 o
4 6 0 0.083 0.047 0.040 633.848 o
4 6 1 39.959 40.146 1.216 0.683 o
4 6 2 6.638 6.210 0.207 23.539 o
4 6 3 22.756 22.936 0.702 2.048 o
4 6 4 2.008 2.051 0.083 146.355 o
4 6 5 16.373 15.775 0.479 4.402 o
4 6 6 22.358 21.838 0.658 2.332 o
4 6 7 4.808 5.111 0.160 39.615 o
4 6 8 8.486 9.074 0.280 12.836 o
4 6 9 12.679 12.870 0.399 6.321 o
4 6 10 16.696 17.085 0.526 3.651 o
4 6 11 3.173 3.060 0.142 49.801 o
4 6 12 7.133 7.074 0.243 17.140 o
4 6 13 1.485 1.453 0.085 140.815 o
4 6 14 9.995 10.002 0.314 10.247 o
4 6 15 2.785 2.687 0.107 88.536 o
4 6 16 3.213 3.412 0.148 46.233 o
4 6 17 14.696 14.234 0.513 3.830 o
4 6 18 4.287 4.299 0.154 42.434 o
4 6 19 4.463 4.385 0.178 31.680 o
4 6 20 1.194 1.277 0.102 96.148 o
4 6 21 5.220 5.136 0.179 31.490 o
4 6 22 0.901 0.703 0.091 122.979 o
4 6 23 1.858 1.791 0.091 122.979 o
4 6 24 0.356 0.355 0.074 184.930 o
4 6 25 0.927 0.963 0.084 142.626 o
4 6 26 0.392 0.279 0.087 133.905 o
4 6 27 0.123 0.410 0.096 108.328 o
4 7 0 0.766 0.841 0.066 233.200 o
4 7 1 19.086 19.280 0.591 2.890 o
4 7 2 3.102 3.043 0.114 77.962 o
4 7 3 11.956 11.552 0.362 7.686 o
4 7 4 10.972 10.727 0.329 9.297 o
4 7 5 13.872 13.914 0.434 5.343 o
4 7 6 11.360 11.549 0.362 7.686 o
4 7 7 2.112 2.132 0.092 120.102 o
4 7 8 1.690 1.886 0.079 160.625 o
4 7 9 4.688 4.739 0.153 43.034 o
4 7 10 4.183 4.285 0.141 50.953 o
4 7 11 2.425 2.563 0.100 100.328 o
4 7 12 5.951 5.822 0.215 21.802 o
4 7 13 8.766 9.141 0.296 11.474 o
4 7 14 0.195 0.294 0.063 253.558 o
4 7 15 9.457 9.577 0.302 11.068 o
4 7 16 6.814 7.073 0.253 15.780 o
4 7 17 3.201 3.477 0.132 57.825 o
4 7 18 0.235 0.323 0.072 196.221 o
4 7 19 4.049 3.698 0.140 51.743 o
4 7 20 0.891 0.820 0.086 137.295 o
4 7 21 1.666 1.398 0.097 107.128 o
4 7 22 0.169 0.335 0.069 211.850 o
4 7 23 1.232 1.340 0.086 137.295 o
4 7 24 0.032 0.157 0.074 182.260 o
4 7 25 0.670 0.755 0.130 59.268 o
4 7 26 0.056 0.031 0.100 101.416 o
4 8 0 1.383 1.389 0.076 174.586 o
4 8 1 2.880 3.039 0.112 80.227 o
4 8 2 3.646 3.762 0.137 53.379 o
4 8 3 8.916 8.851 0.285 12.403 o
4 8 4 10.495 10.797 0.355 7.992 o
4 8 5 0.875 0.953 0.071 199.205 o
4 8 6 1.943 1.786 0.084 142.626 o
4 8 7 4.565 4.660 0.157 40.708 o
4 8 8 17.893 17.863 0.559 3.228 o
4 8 9 1.498 1.710 0.249 16.262 o
4 8 10 6.447 6.682 0.230 19.037 o
4 8 11 10.456 9.987 0.347 8.369 o
4 8 12 5.524 5.926 0.196 26.341 o
4 8 13 3.150 3.483 0.125 65.047 o
4 8 14 5.076 5.168 0.172 33.896 o
4 8 15 4.778 4.771 0.183 30.203 o
4 8 16 0.216 0.231 0.070 208.578 o
4 8 17 1.238 1.323 0.093 117.325 o
4 8 18 0.239 0.185 0.066 233.200 o
4 8 19 0.513 0.542 0.074 184.930 o
4 8 20 0.223 0.292 0.082 150.232 o
4 8 21 0.206 0.239 0.071 202.258 o
4 8 22 0.074 0.183 0.073 187.660 o
4 8 23 0.984 1.065 0.094 113.337 o
4 8 24 0.148 0.220 0.100 101.416 o
4 8 25 0.274 0.233 0.092 120.102 o
4 9 0 10.551 10.501 0.335 9.000 o
4 9 1 0.480 0.479 0.064 249.278 o
4 9 2 0.470 0.557 0.081 154.265 o
4 9 3 3.831 3.884 0.142 50.181 o
4 9 4 6.245 6.216 0.210 22.820 o
4 9 5 1.058 1.161 0.086 135.584 o
4 9 6 5.921 5.818 0.199 25.491 o
4 9 7 3.187 3.276 0.128 61.277 o
4 9 8 3.239 3.367 0.135 55.535 o
4 9 9 4.277 4.236 0.152 43.647 o
4 9 10 6.270 6.077 0.199 25.491 o
4 9 11 0.152 0.181 0.063 257.948 o
4 9 12 2.766 3.071 0.119 71.066 o
4 9 13 1.451 1.653 0.085 140.815 o
4 9 14 0.311 0.422 0.086 137.295 o
4 9 15 0.629 0.674 0.075 177.089 o
4 9 16 0.348 0.505 0.072 196.221 o
4 9 17 0.185 0.292 0.092 120.102 o
4 9 18 0.749 0.698 0.082 150.232 o
4 9 19 0.344 0.326 0.078 165.087 o
4 9 20 0.153 0.318 0.074 182.260 o
4 9 21 0.716 0.941 0.092 118.702 o
4 9 22 0.411 0.498 0.080 158.462 o
4 9 23 0.040 0.038 0.108 85.912 o
4 9 24 0.034 0.203 0.105 92.224 o
4 10 0 0.436 0.495 0.071 199.205 o
4 10 1 0.833 0.825 0.069 211.850 o
4 10 2 3.511 3.465 0.133 56.892 o
4 10 3 1.034 1.016 0.074 184.930 o
4 10 4 1.946 1.933 0.089 125.960 o
4 10 5 5.453 5.243 0.179 31.490 o
4 10 6 0.306 0.441 0.070 205.382 o
4 10 7 3.666 4.008 0.145 47.967 o
4 10 8 2.531 2.422 0.107 87.648 o
4 10 9 2.831 2.809 0.131 58.781 o
4 10 10 1.317 1.083 0.080 156.342 o
4 10 11 1.877 2.145 0.098 104.787 o
4 10 12 0.007 0.182 0.089 127.491 o
4 10 13 0.002 0.147 0.079 162.833 o
4 10 14 1.552 1.551 0.089 127.491 o
4 10 15 0.431 0.662 0.103 94.156 o
4 10 16 0.793 0.771 0.075 177.089 o
4 10 17 0.599 0.543 0.073 187.660 o
4 10 18 0.340 0.327 0.075 179.647 o
4 10 19 0.239 0.450 0.076 174.586 o
4 10 20 0.242 0.258 0.099 102.521 o
4 10 21 0.204 0.207 0.095 112.053 o
4 10 22 0.053 0.087 0.119 71.714 o
4 11 0 0.032 0.204 0.080 158.462 o
4 11 1 1.300 1.437 0.090 124.456 o
4 11 2 1.018 0.992 0.089 125.960 o
4 11 3 3.850 3.625 0.142 49.801 o
4 11 4 0.417 0.457 0.075 177.089 o
4 11 5 0.120 0.154 0.080 158.462 o
4 11 6 0.862 0.911 0.077 169.737 o
4 11 7 1.605 1.418 0.109 84.228 o
4 11 8 0.430 0.420 0.078 167.388 o
4 11 9 1.018 0.965 0.079 162.833 o
4 11 10 0.046 0.170 0.071 199.205 o
4 11 11 0.047 0.023 0.090 124.456 o
4 11 12 1.255 1.126 0.080 158.462 o
4 11 13 0.379 0.583 0.072 196.221 o
4 11 14 0.458 0.615 0.074 182.260 o
4 11 15 0.416 0.567 0.074 184.930 o
4 11 16 0.460 0.518 0.073 190.450 o
4 11 17 0.031 0.146 0.071 199.205 o
4 11 18 0.120 0.217 0.085 140.815 o
4 11 19 0.074 0.053 0.103 95.144 o
4 11 20 0.024 0.072 0.137 53.379 o
4 12 0 0.095 0.121 0.078 165.087 o
4 12 1 2.624 2.604 0.120 70.428 o
4 12 2 0.335 0.335 0.079 160.625 o
4 12 3 1.076 1.155 0.085 140.815 o
4 12 4 0.449 0.388 0.076 174.586 o
4 12 5 1.037 1.165 0.083 146.355 o
4 12 6 0.203 0.322 0.076 174.586 o
4 12 7 0.342 0.314 0.078 165.087 o
4 12 8 0.410 0.404 0.080 156.342 o
4 12 9 0.078 0.072 0.075 177.089 o
4 12 10 0.547 0.569 0.090 124.456 o
4 12 11 0.698 0.679 0.086 137.295 o
4 12 12 0.096 0.109 0.072 196.221 o
4 12 13 0.160 0.259 0.072 196.221 o
4 12 14 0.185 0.358 0.089 127.491 o
4 12 15 0.336 0.371 0.082 148.274 o
4 12 16 0.057 0.190 0.090 124.456 o
4 12 17 0.009 -0.130 0.302 11.068 o
4 13 0 0.107 0.112 0.074 182.260 o
4 13 1 0.570 0.608 0.078 167.388 o
4 13 2 0.024 0.100 0.074 184.930 o
4 13 3 0.846 0.892 0.084 144.473 o
4 13 4 0.202 0.281 0.077 169.737 o
4 13 5 0.492 0.438 0.077 172.136 o
4 13 6 0.142 0.294 0.085 140.815 o
4 13 7 0.195 0.249 0.079 160.625 o
4 13 8 0.287 0.358 0.081 152.228 o
4 13 9 0.773 0.601 0.088 129.051 o
4 13 10 0.073 0.047 0.077 169.737 o
4 13 11 0.004 0.243 0.094 114.644 o
4 13 12 0.033 0.091 0.083 146.355 o
4 13 13 0.298 0.154 0.095 112.053 o
4 13 14 0.015 0.108 0.113 79.461 o
4 14 0 0.010 -0.007 0.308 10.646 o
4 14 1 0.176 0.165 0.084 142.626 o
4 14 2 0.544 0.508 0.093 117.325 o
4 14 3 0.109 0.108 0.083 146.355 o
4 14 4 0.014 0.121 0.092 120.102 o
4 14 5 0.296 0.123 0.092 120.102 o
4 14 6 0.257 0.329 0.083 146.355 o
4 14 7 0.219 0.216 0.083 146.355 o
4 14 8 0.019 0.088 0.091 122.979 o
4 14 9 0.098 0.149 0.120 69.797 o
4 14 10 0.013 0.174 0.100 100.328 o
5 0 1 195.854 193.676 5.844 0.030 o
5 0 2 88.039 90.763 2.804 0.128 o
5 0 3 33.937 35.119 1.017 0.976 o
5 0 4 279.590 287.504 9.211 0.012 o
5 0 5 148.411 141.910 4.092 0.060 o
5 0 6 1.814 1.714 0.063 253.558 o
5 0 7 6.303 5.677 0.178 31.873 o
5 0 8 87.476 87.106 2.521 0.159 o
5 0 9 52.338 52.018 1.604 0.392 o
5 0 10 5.479 5.554 0.172 33.896 o
5 0 11 14.167 13.446 0.413 5.900 o
5 0 12 0.162 0.313 0.042 585.419 o
5 0 13 36.299 37.089 1.135 0.783 o
5 0 14 0.422 0.469 0.050 401.313 o
5 0 15 8.266 7.964 0.274 13.397 o
5 0 16 3.867 3.939 0.153 43.339 o
5 0 17 19.300 19.936 0.621 2.615 o
5 0 18 0.179 0.172 0.067 222.141 o
5 0 19 5.922 5.842 0.196 26.341 o
5 0 20 0.645 0.722 0.068 215.199 o
5 0 21 3.188 2.855 0.140 51.743 o
5 0 22 0.257 0.391 0.076 174.586 o
5 0 23 3.089 3.150 0.130 59.761 o
5 0 24 0.080 0.074 0.084 144.473 o
5 0 25 0.005 0.142 0.069 211.850 o
5 0 26 0.001 0.068 0.070 208.578 o
5 0 27 1.025 0.884 0.091 122.979 o
5 0 28 0.037 0.022 0.092 120.102 o
5 0 29 0.257 0.148 0.100 101.416 o
5 1 0 204.166 217.620 6.599 0.023 o
5 1 1 86.677 88.513 3.695 0.074 o
5 1 2 346.533 360.979 15.231 0.004 o
5 1 3 143.787 137.806 4.401 0.052 o
5 1 4 58.899 61.616 1.836 0.299 o
5 1 5 5.232 5.517 0.170 34.981 o
5 1 6 151.449 153.195 4.699 0.046 o
5 1 7 55.711 55.324 1.777 0.320 o
5 1 8 34.111 34.309 1.012 0.985 o
5 1 9 49.417 49.365 1.527 0.433 o
5 1 10 2.744 2.889 0.119 71.714 o
5 1 11 21.468 21.205 0.650 2.386 o
5 1 12 14.278 14.843 0.446 5.063 o
5 1 13 18.359 18.128 0.543 3.416 o
5 1 14 9.358 9.209 0.288 12.127 o
5 1 15 11.332 11.486 0.414 5.885 o
5 1 16 21.585 21.986 0.765 1.721 o
5 1 17 4.100 4.263 0.151 44.272 o
5 1 18 1.737 1.544 0.088 129.051 o
5 1 19 3.290 3.243 0.131 58.781 o
5 1 20 10.140 9.881 0.314 10.212 o
5 1 21 4.307 4.429 0.226 19.771 o
5 1 22 0.125 0.169 0.071 202.258 o
5 1 23 0.340 0.318 0.074 182.260 o
5 1 24 1.464 1.470 0.096 108.328 o
5 1 25 1.763 1.790 0.098 104.787 o
5 1 26 0.055 0.193 0.078 167.388 o
5 1 27 0.449 0.505 0.091 121.528 o
5 1 28 0.238 0.399 0.082 148.274 o
5 1 29 0.406 0.409 0.100 100.328 o
5 2 0 118.507 119.963 3.632 0.076 o
5 2 1 25.866 25.087 0.797 1.587 o
5 2 2 121.356 127.355 5.341 0.035 o
5 2 3 17.870 18.275 0.722 1.933 o
5 2 4 109.599 110.406 3.608 0.077 o
5 2 5 34.693 32.978 1.077 0.869 o
5 2 6 9.500 9.387 0.348 8.343 o
5 2 7 8.496 8.318 0.253 15.713 o
5 2 8 34.725 34.065 1.030 0.950 o
5 2 9 11.799 11.924 0.371 7.333 o
5 2 10 73.343 72.417 2.228 0.203 o
5 2 11 21.252 21.567 0.657 2.340 o
5 2 12 8.133 8.247 0.292 11.815 o
5 2 13 0.313 0.372 0.049 419.146 o
5 2 14 40.272 40.539 1.351 0.552 o
5 2 15 2.883 2.989 0.116 74.394 o
5 2 16 0.734 0.684 0.060 276.702 o
5 2 17 0.958 1.041 0.092 120.102 o
5 2 18 13.515 13.028 0.434 5.343 o
5 2 19 1.412 1.587 0.084 142.626 o
5 2 20 0.398 0.507 0.069 211.850 o
5 2 21 0.415 0.416 0.072 196.221 o
5 2 22 3.336 3.370 0.127 62.320 o
5 2 23 1.409 1.447 0.094 114.644 o
5 2 24 0.850 0.982 0.081 152.228 o
5 2 25 0.334 0.239 0.071 202.258 o
5 2 26 1.193 1.321 0.101 98.205 o
5 2 27 0.321 0.452 0.080 158.462 o
5 2 28 0.545 0.642 0.086 135.584 o
5 2 29 0.149 0.188 0.098 104.787 o
5 3 0 48.613 48.940 1.457 0.475 o
5 3 1 22.273 23.361 0.704 2.035 o
5 3 2 20.442 20.807 0.638 2.476 o
5 3 3 40.302 39.066 1.136 0.782 o
5 3 4 35.479 34.206 1.054 0.908 o
5 3 5 36.499 35.620 1.090 0.849 o
5 3 6 24.991 24.720 0.765 1.721 o
5 3 7 60.720 61.587 1.956 0.264 o
5 3 8 95.339 95.681 3.072 0.107 o
5 3 9 0.722 0.735 0.055 333.617 o
5 3 10 50.618 50.234 1.508 0.443 o
5 3 11 7.625 7.928 0.236 18.093 o
5 3 12 49.880 50.590 1.525 0.434 o
5 3 13 1.470 1.495 0.085 139.038 o
5 3 14 17.402 17.463 0.564 3.166 o
5 3 15 10.396 10.447 0.402 6.254 o
5 3 16 5.122 5.152 0.194 26.782 o
5 3 17 0.434 0.452 0.063 253.558 o
5 3 18 1.597 1.760 0.092 120.102 o
5 3 19 2.059 2.143 0.100 101.416 o
5 3 20 0.178 0.268 0.072 196.221 o
5 3 21 0.613 0.835 0.078 167.388 o
5 3 22 2.980 3.109 0.136 54.226 o
5 3 23 0.100 0.202 0.075 179.647 o
5 3 24 0.726 0.672 0.080 156.342 o
5 3 25 0.296 0.357 0.071 199.205 o
5 3 26 1.687 1.563 0.092 120.102 o
5 3 27 0.004 0.151 0.078 165.087 o
5 3 28 0.594 0.598 0.094 114.644 o
5 3 29 0.037 0.034 0.089 127.491 o
5 4 0 21.077 22.058 0.654 2.355 o
5 4 1 10.538 11.023 0.333 9.088 o
5 4 2 1.215 1.201 0.051 384.593 o
5 4 3 86.698 86.378 2.510 0.160 o
5 4 4 24.659 24.428 0.778 1.665 o
5 4 5 39.076 40.768 1.413 0.505 o
5 4 6 8.881 9.155 0.319 9.937 o
5 4 7 19.045 19.247 0.588 2.916 o
5 4 8 22.855 23.042 0.723 1.927 o
5 4 9 18.422 18.810 0.594 2.858 o
5 4 10 9.857 9.749 0.311 10.425 o
5 4 11 1.745 1.892 0.080 156.342 o
5 4 12 6.626 6.600 0.206 23.662 o
5 4 13 2.350 2.280 0.106 90.352 o
5 4 14 2.150 2.180 0.096 108.328 o
5 4 15 0.563 0.569 0.063 253.558 o
5 4 16 4.180 4.194 0.157 40.989 o
5 4 17 0.866 0.780 0.066 233.200 o
5 4 18 0.238 0.321 0.086 137.295 o
5 4 19 0.586 0.588 0.072 196.221 o
5 4 20 5.123 5.474 0.211 22.588 o
5 4 21 0.161 0.309 0.069 211.850 o
5 4 22 0.024 0.149 0.071 199.205 o
5 4 23 0.751 0.832 0.079 160.625 o
5 4 24 1.698 1.653 0.088 130.639 o
5 4 25 0.091 0.374 0.077 172.136 o
5 4 26 0.185 0.209 0.075 177.089 o
5 4 27 0.282 0.323 0.087 133.905 o
5 4 28 0.152 0.321 0.114 77.228 o
5 5 0 0.055 0.105 0.036 773.213 o
5 5 1 88.508 89.791 2.688 0.140 o
5 5 2 12.824 12.039 0.371 7.312 o
5 5 3 6.644 6.796 0.212 22.473 o
5 5 4 26.806 26.106 0.799 1.580 o
5 5 5 26.507 26.822 0.791 1.613 o
5 5 6 14.851 14.789 0.475 4.462 o
5 5 7 9.505 9.577 0.312 10.389 o
5 5 8 15.761 16.740 0.536 3.513 o
5 5 9 3.772 3.692 0.128 61.277 o
5 5 10 4.586 4.697 0.166 36.589 o
5 5 11 4.073 4.165 0.155 42.139 o
5 5 12 0.005 0.071 0.054 347.095 o
5 5 13 3.802 3.799 0.127 62.851 o
5 5 14 6.548 6.727 0.235 18.259 o
5 5 15 0.793 0.887 0.060 276.702 o
5 5 16 2.832 2.883 0.129 60.765 o
5 5 17 0.299 0.452 0.093 117.325 o
5 5 18 4.061 4.007 0.151 43.958 o
5 5 19 0.777 0.841 0.078 167.388 o
5 5 20 1.389 1.544 0.095 112.053 o
5 5 21 0.663 0.762 0.087 132.257 o
5 5 22 0.872 0.921 0.080 156.342 o
5 5 23 0.078 0.218 0.074 182.260 o
5 5 24 0.073 0.229 0.071 202.258 o
5 5 25 0.191 0.174 0.075 179.647 o
5 5 26 0.005 0.034 0.077 169.737 o
5 5 27 0.073 0.252 0.085 139.038 o
5 6 0 7.701 7.595 0.246 16.619 o
5 6 1 24.360 24.599 0.760 1.748 o
5 6 2 12.396 12.139 0.382 6.924 o
5 6 3 36.956 36.917 1.114 0.812 o
5 6 4 4.252 4.191 0.162 38.310 o
5 6 5 2.383 2.337 0.085 139.038 o
5 6 6 14.779 14.851 0.459 4.782 o
5 6 7 1.603 1.380 0.112 81.004 o
5 6 8 0.449 0.450 0.057 314.826 o
5 6 9 10.225 10.587 0.349 8.266 o
5 6 10 0.047 0.134 0.056 327.171 o
5 6 11 5.105 5.125 0.220 20.851 o
5 6 12 3.158 3.061 0.123 66.188 o
5 6 13 2.284 2.154 0.118 72.370 o
5 6 14 5.525 5.519 0.202 24.682 o
5 6 15 0.182 0.293 0.056 327.171 o
5 6 16 1.452 1.516 0.108 85.912 o
5 6 17 0.304 0.292 0.063 253.558 o
5 6 18 3.073 2.948 0.116 74.394 o
5 6 19 0.273 0.246 0.075 177.089 o
5 6 20 0.025 0.108 0.073 187.660 o
5 6 21 0.017 0.036 0.081 152.228 o
5 6 22 0.185 0.284 0.079 162.833 o
5 6 23 0.020 0.117 0.070 205.382 o
5 6 24 0.000 0.011 0.074 182.260 o
5 6 25 0.229 0.359 0.123 66.770 o
5 6 26 0.226 0.385 0.085 140.815 o
5 6 27 0.022 0.101 0.102 96.148 o
5 7 0 4.510 4.737 0.164 37.558 o
5 7 1 7.749 7.766 0.252 15.847 o
5 7 2 2.444 2.328 0.091 122.979 o
5 7 3 2.915 3.096 0.130 59.761 o
5 7 4 7.716 7.883 0.257 15.255 o
5 7 5 8.663 8.915 0.284 12.545 o
5 7 6 3.879 3.703 0.137 53.800 o
5 7 7 13.652 14.024 0.431 5.423 o
5 7 8 10.956 11.116 0.363 7.641 o
5 7 9 1.779 1.669 0.074 184.930 o
5 7 10 8.004 7.469 0.350 8.215 o
5 7 11 1.930 1.914 0.139 52.145 o
5 7 12 7.727 7.672 0.363 7.663 o
5 7 13 0.674 0.533 0.057 314.826 o
5 7 14 5.773 5.902 0.219 20.954 o
5 7 15 0.314 0.486 0.063 253.558 o
5 7 16 2.296 2.456 0.099 103.645 o
5 7 17 0.211 0.268 0.068 218.629 o
5 7 18 0.483 0.614 0.071 202.258 o
5 7 19 0.430 0.491 0.073 187.660 o
5 7 20 0.040 0.185 0.071 202.258 o
5 7 21 0.449 0.714 0.079 160.625 o
5 7 22 0.125 0.166 0.085 139.038 o
5 7 23 0.335 0.383 0.076 174.586 o
5 7 24 0.306 0.381 0.105 92.224 o
5 7 25 0.126 0.341 0.090 124.456 o
5 7 26 0.262 0.284 0.150 44.590 o
5 8 0 0.625 0.795 0.058 303.166 o
5 8 1 4.304 4.192 0.141 50.565 o
5 8 2 1.905 1.807 0.081 154.265 o
5 8 3 4.875 4.740 0.174 33.269 o
5 8 4 1.476 1.352 0.076 174.586 o
5 8 5 11.466 11.434 0.354 8.066 o
5 8 6 7.745 7.626 0.244 16.914 o
5 8 7 1.483 1.516 0.084 142.626 o
5 8 8 8.153 7.827 0.254 15.580 o
5 8 9 4.021 4.237 0.156 41.558 o
5 8 10 5.794 6.183 0.220 20.749 o
5 8 11 0.334 0.334 0.074 184.930 o
5 8 12 7.820 7.750 0.251 15.984 o
5 8 13 0.401 0.455 0.060 281.710 o
5 8 14 0.873 0.979 0.072 193.303 o
5 8 15 1.361 1.321 0.075 177.089 o
5 8 16 0.685 0.762 0.071 202.258 o
5 8 17 0.411 0.437 0.070 208.578 o
5 8 18 0.114 0.175 0.067 225.738 o
5 8 19 1.768 1.842 0.091 122.979 o
5 8 20 0.373 0.519 0.075 179.647 o
5 8 21 0.162 0.228 0.071 202.258 o
5 8 22 0.215 0.315 0.088 129.051 o
5 8 23 0.744 0.723 0.095 110.790 o
5 8 24 0.267 0.335 0.098 104.787 o
5 9 0 6.901 7.027 0.230 19.126 o
5 9 1 7.335 7.269 0.238 17.767 o
5 9 2 2.727 2.793 0.110 83.404 o
5 9 3 9.299 9.390 0.332 9.147 o
5 9 4 1.710 1.785 0.087 132.257 o
5 9 5 1.681 1.769 0.103 95.144 o
5 9 6 1.749 1.704 0.088 130.639 o
5 9 7 6.247 6.128 0.222 20.548 o
5 9 8 1.440 1.589 0.113 78.706 o
5 9 9 0.240 0.301 0.065 237.071 o
5 9 10 0.549 0.689 0.066 229.424 o
5 9 11 2.110 2.181 0.095 110.790 o
5 9 12 0.363 0.499 0.066 229.424 o
5 9 13 1.527 1.622 0.088 129.051 o
5 9 14 0.059 0.100 0.070 208.578 o
5 9 15 0.677 0.741 0.073 187.660 o
5 9 16 0.202 0.231 0.071 199.205 o
5 9 17 1.871 1.820 0.128 61.795 o
5 9 18 0.673 0.723 0.092 118.702 o
5 9 19 0.145 0.257 0.081 154.265 o
5 9 20 0.388 0.516 0.084 144.473 o
5 9 21 1.269 1.290 0.103 94.156 o
5 9 22 0.214 0.176 0.093 117.325 o
5 9 23 0.093 0.178 0.107 87.648 o
5 10 0 0.388 0.469 0.068 218.629 o
5 10 1 5.905 5.959 0.204 24.292 o
5 10 2 2.983 2.856 0.140 51.345 o
5 10 3 2.104 2.244 0.098 105.948 o
5 10 4 0.814 0.938 0.085 139.038 o
5 10 5 5.077 4.962 0.174 33.476 o
5 10 6 3.730 3.656 0.141 50.953 o
5 10 7 0.026 0.082 0.074 184.930 o
5 10 8 0.952 0.993 0.099 103.645 o
5 10 9 3.109 3.050 0.127 62.851 o
5 10 10 1.679 1.734 0.161 39.086 o
5 10 11 0.398 0.485 0.066 233.200 o
5 10 12 1.010 0.979 0.075 177.089 o
5 10 13 2.430 2.291 0.103 94.156 o
5 10 14 0.167 0.248 0.068 215.199 o
5 10 15 0.630 0.708 0.075 177.089 o
5 10 16 0.213 0.360 0.088 130.639 o
5 10 17 0.991 1.161 0.086 135.584 o
5 10 18 0.146 0.134 0.079 162.833 o
5 10 19 0.617 0.721 0.120 69.797 o
5 10 20 0.201 0.370 0.114 77.962 o
5 10 21 0.218 0.335 0.091 121.528 o
5 11 0 0.262 0.325 0.071 199.205 o
5 11 1 0.896 0.878 0.078 165.087 o
5 11 2 3.689 3.820 0.143 49.426 o
5 11 3 1.098 1.167 0.086 135.584 o
5 11 4 0.160 0.150 0.078 165.087 o
5 11 5 0.732 0.779 0.071 199.205 o
5 11 6 3.125 3.172 0.121 68.562 o
5 11 7 1.001 1.069 0.091 122.979 o
5 11 8 0.312 0.336 0.069 211.850 o
5 11 9 0.608 0.694 0.074 182.260 o
5 11 10 0.580 0.579 0.079 162.833 o
5 11 11 1.153 1.115 0.092 120.102 o
5 11 12 0.432 0.489 0.075 177.089 o
5 11 13 0.179 0.257 0.083 146.355 o
5 11 14 0.016 0.070 0.101 98.205 o
5 11 15 0.693 0.927 0.086 135.584 o
5 11 16 0.491 0.431 0.081 154.265 o
5 11 17 0.053 0.079 0.087 132.257 o
5 11 18 0.151 0.177 0.095 112.053 o
5 11 19 0.173 0.296 0.103 95.144 o
5 12 0 3.965 3.778 0.149 45.236 o
5 12 1 0.025 0.042 0.080 158.462 o
5 12 2 0.049 0.167 0.088 130.639 o
5 12 3 0.310 0.265 0.073 187.660 o
5 12 4 2.632 2.753 0.126 63.389 o
5 12 5 0.047 0.052 0.071 202.258 o
5 12 6 0.065 0.210 0.071 199.205 o
5 12 7 0.850 0.916 0.080 158.462 o
5 12 8 0.362 0.475 0.079 162.833 o
5 12 9 0.116 0.113 0.073 187.660 o
5 12 10 0.125 0.127 0.100 101.416 o
5 12 11 0.388 0.502 0.111 82.593 o
5 12 12 0.077 -0.047 0.294 11.686 o
5 12 13 0.068 0.254 0.084 144.473 o
5 12 14 0.620 0.725 0.102 96.148 o
5 12 15 0.015 0.093 0.088 129.051 o
5 12 16 0.099 0.132 0.119 71.714 o
5 13 0 0.080 0.174 0.092 118.702 o
5 13 1 0.036 0.165 0.074 184.930 o
5 13 2 0.184 0.239 0.081 154.265 o
5 13 3 0.051 0.101 0.077 169.737 o
5 13 4 0.008 0.074 0.081 152.228 o
5 13 5 0.122 0.108 0.080 158.462 o
5 13 6 0.084 0.044 0.080 158.462 o
5 13 7 0.146 0.206 0.088 130.639 o
5 13 8 0.214 0.199 0.107 87.648 o
5 13 9 0.092 0.187 0.095 112.053 o
5 13 10 0.057 0.240 0.085 139.038 o
5 13 11 0.185 0.237 0.113 79.461 o
5 13 12 0.358 0.471 0.089 125.960 o
5 13 13 0.032 0.071 0.113 78.706 o
5 14 0 0.131 0.150 0.085 139.038 o
5 14 1 0.041 0.098 0.082 150.232 o
5 14 2 0.048 0.047 0.089 125.960 o
5 14 3 0.022 0.185 0.085 140.815 o
5 14 4 0.034 0.067 0.114 77.228 o
5 14 5 0.072 -0.051 0.346 8.421 o
5 14 6 0.119 0.173 0.111 82.593 o
5 14 7 0.007 -0.111 0.416 5.824 o
6 0 0 0.478 0.486 0.050 410.084 o
6 0 1 53.402 57.381 1.764 0.324 o
6 0 2 12.192 12.392 0.392 6.567 o
6 0 3 1.022 1.161 0.044 516.203 o
6 0 4 11.774 12.512 0.375 7.186 o
6 0 5 45.361 47.283 1.398 0.516 o
6 0 6 8.777 8.398 0.253 15.780 o
6 0 7 73.095 74.474 2.398 0.175 o
6 0 8 15.377 15.118 0.453 4.907 o
6 0 9 7.159 7.318 0.230 19.126 o
6 0 10 6.449 6.449 0.199 25.354 o
6 0 11 41.540 39.823 1.190 0.712 o
6 0 12 4.441 4.540 0.147 46.572 o
6 0 13 0.394 0.512 0.052 368.897 o
6 0 14 1.795 1.845 0.085 139.038 o
6 0 15 0.091 0.094 0.063 257.948 o
6 0 16 11.326 11.442 0.364 7.618 o
6 0 17 5.054 4.886 0.277 13.138 o
6 0 18 2.427 2.491 0.104 93.182 o
6 0 19 6.802 6.707 0.244 16.914 o
6 0 20 0.036 0.039 0.070 208.578 o
6 0 21 3.382 3.254 0.125 65.047 o
6 0 22 1.396 1.319 0.093 115.973 o
6 0 23 0.892 0.991 0.078 165.087 o
6 0 24 2.097 1.858 0.096 108.328 o
6 0 25 0.346 0.407 0.078 165.087 o
6 0 26 0.024 0.153 0.074 182.260 o
6 0 27 0.216 0.292 0.084 144.473 o
6 0 28 0.656 0.646 0.098 104.787 o
6 1 0 0.975 0.892 0.048 438.196 o
6 1 1 0.634 0.609 0.049 428.513 o
6 1 2 5.273 5.068 0.203 24.421 o
6 1 3 7.962 8.384 0.273 13.556 o
6 1 4 12.963 13.110 0.449 5.002 o
6 1 5 5.507 5.902 0.178 31.680 o
6 1 6 13.479 13.455 0.400 6.304 o
6 1 7 3.170 3.395 0.111 81.793 o
6 1 8 5.627 5.811 0.181 30.745 o
6 1 9 5.196 5.096 0.181 30.745 o
6 1 10 0.292 0.355 0.042 570.505 o
6 1 11 3.915 3.767 0.124 65.614 o
6 1 12 10.544 10.458 0.341 8.690 o
6 1 13 2.189 2.333 0.096 108.328 o
6 1 14 10.485 10.308 0.336 8.943 o
6 1 15 2.162 2.292 0.097 107.128 o
6 1 16 1.935 2.011 0.101 99.258 o
6 1 17 5.961 5.944 0.204 24.292 o
6 1 18 2.103 2.086 0.093 117.325 o
6 1 19 2.299 2.250 0.100 101.416 o
6 1 20 5.731 5.593 0.227 19.491 o
6 1 21 1.399 1.210 0.135 55.535 o
6 1 22 1.472 1.576 0.103 95.144 o
6 1 23 1.890 1.881 0.100 100.328 o
6 1 24 1.022 1.000 0.081 154.265 o
6 1 25 0.328 0.429 0.078 167.388 o
6 1 26 1.677 1.645 0.098 104.787 o
6 1 27 0.276 0.287 0.077 169.737 o
6 1 28 0.110 0.218 0.086 137.295 o
6 2 0 53.715 55.441 1.645 0.373 o
6 2 1 46.110 46.416 1.439 0.487 o
6 2 2 2.639 2.451 0.098 104.787 o
6 2 3 1.701 1.609 0.073 187.660 o
6 2 4 12.700 12.510 0.427 5.533 o
6 2 5 47.022 46.216 1.814 0.307 o
6 2 6 0.215 0.206 0.046 480.409 o
6 2 7 35.243 35.113 1.033 0.945 o
6 2 8 0.016 0.058 0.042 585.419 o
6 2 9 2.181 2.185 0.096 109.549 o
6 2 10 5.495 5.540 0.173 33.685 o
6 2 11 39.557 40.100 1.259 0.637 o
6 2 12 4.934 4.964 0.164 37.312 o
6 2 13 15.947 15.403 0.475 4.462 o
6 2 14 2.466 2.513 0.106 90.352 o
6 2 15 18.929 18.387 0.577 3.032 o
6 2 16 3.950 3.800 0.139 52.551 o
6 2 17 5.469 5.579 0.194 26.931 o
6 2 18 12.449 12.369 0.451 4.966 o
6 2 19 1.225 1.303 0.105 91.281 o
6 2 20 0.752 0.931 0.085 139.038 o
6 2 21 2.698 2.747 0.114 77.962 o
6 2 22 5.714 5.417 0.232 18.772 o
6 2 23 0.657 0.703 0.085 140.815 o
6 2 24 2.023 1.789 0.107 87.648 o
6 2 25 2.398 2.368 0.113 79.461 o
6 2 26 0.278 0.203 0.074 182.260 o
6 2 27 0.464 0.538 0.082 148.274 o
6 2 28 0.518 0.583 0.102 97.168 o
6 3 0 0.467 0.656 0.038 688.544 o
6 3 1 0.909 0.840 0.044 516.203 o
6 3 2 26.467 27.169 0.880 1.302 o
6 3 3 2.585 2.914 0.113 79.461 o
6 3 4 5.342 5.640 0.205 24.037 o
6 3 5 14.703 15.006 0.510 3.879 o
6 3 6 8.994 8.709 0.302 11.068 o
6 3 7 20.006 19.919 0.660 2.313 o
6 3 8 8.929 8.560 0.309 10.572 o
6 3 9 15.855 16.454 0.512 3.846 o
6 3 10 10.801 10.765 0.371 7.333 o
6 3 11 25.811 25.704 0.836 1.443 o
6 3 12 0.940 1.028 0.060 281.710 o
6 3 13 20.970 20.405 0.699 2.063 o
6 3 14 8.730 9.065 0.294 11.643 o
6 3 15 1.648 1.524 0.089 125.960 o
6 3 16 11.683 11.662 0.386 6.771 o
6 3 17 7.657 7.933 0.257 15.319 o
6 3 18 1.369 1.462 0.099 102.521 o
6 3 19 3.229 3.581 0.140 51.743 o
6 3 20 10.786 10.777 0.347 8.369 o
6 3 21 0.428 0.458 0.072 196.221 o
6 3 22 0.870 0.916 0.099 102.521 o
6 3 23 3.470 3.435 0.127 62.320 o
6 3 24 1.698 1.587 0.100 101.416 o
6 3 25 0.036 0.204 0.092 120.102 o
6 3 26 0.774 0.871 0.093 117.325 o
6 3 27 0.874 0.790 0.087 132.257 o
6 3 28 0.024 -0.090 0.296 11.516 o
6 4 0 0.000 0.048 0.037 750.638 o
6 4 1 37.080 35.941 1.070 0.881 o
6 4 2 17.633 17.736 0.527 3.629 o
6 4 3 15.767 15.451 0.468 4.607 o
6 4 4 3.159 3.319 0.118 72.370 o
6 4 5 58.760 58.278 1.821 0.304 o
6 4 6 24.049 23.343 1.085 0.857 o
6 4 7 16.725 16.811 0.529 3.607 o
6 4 8 16.147 16.482 0.529 3.607 o
6 4 9 55.649 57.124 1.759 0.326 o
6 4 10 7.625 7.610 0.251 15.984 o
6 4 11 9.777 9.774 0.323 9.674 o
6 4 12 20.792 21.044 0.676 2.207 o
6 4 13 11.572 11.790 0.348 8.343 o
6 4 14 3.161 3.122 0.156 41.558 o
6 4 15 14.274 14.333 0.474 4.482 o
6 4 16 6.273 6.398 0.225 19.961 o
6 4 17 5.378 5.516 0.189 28.334 o
6 4 18 6.512 6.279 0.225 19.961 o
6 4 19 6.052 6.215 0.219 21.057 o
6 4 20 0.078 0.025 0.073 190.450 o
6 4 21 3.003 3.179 0.171 34.324 o
6 4 22 1.593 1.363 0.084 144.473 o
6 4 23 0.998 1.063 0.088 130.639 o
6 4 24 0.564 0.553 0.082 148.274 o
6 4 25 0.373 0.491 0.099 102.521 o
6 4 26 0.057 -0.062 0.308 10.646 o
6 4 27 0.146 0.274 0.085 140.815 o
6 5 0 27.991 27.762 0.828 1.471 o
6 5 1 17.984 18.500 0.548 3.356 o
6 5 2 13.113 13.007 0.397 6.408 o
6 5 3 20.854 21.290 0.635 2.501 o
6 5 4 25.982 26.497 0.813 1.524 o
6 5 5 36.775 37.104 1.115 0.812 o
6 5 6 5.689 5.808 0.191 27.542 o
6 5 7 39.442 38.989 1.227 0.670 o
6 5 8 10.749 11.398 0.362 7.709 o
6 5 9 12.053 11.764 0.378 7.043 o
6 5 10 19.936 19.980 0.633 2.518 o
6 5 11 23.464 23.270 0.731 1.885 o
6 5 12 0.488 0.502 0.080 158.462 o
6 5 13 15.723 15.565 0.512 3.854 o
6 5 14 15.020 14.787 0.495 4.119 o
6 5 15 2.182 2.269 0.140 51.345 o
6 5 16 1.704 1.646 0.096 108.328 o
6 5 17 8.352 8.201 0.270 13.884 o
6 5 18 2.378 2.406 0.111 81.793 o
6 5 19 0.356 0.398 0.074 182.260 o
6 5 20 0.151 0.314 0.070 205.382 o
6 5 21 1.048 0.926 0.100 100.328 o
6 5 22 0.217 0.361 0.077 172.136 o
6 5 23 0.071 0.034 0.082 148.274 o
6 5 24 0.063 0.013 0.077 172.136 o
6 5 25 0.099 0.350 0.077 172.136 o
6 5 26 0.060 0.253 0.084 142.626 o
6 5 27 0.092 0.086 0.090 124.456 o
6 6 0 25.228 24.817 0.755 1.771 o
6 6 1 31.145 31.091 0.954 1.108 o
6 6 2 16.862 16.577 0.523 3.681 o
6 6 3 23.479 24.298 0.738 1.849 o
6 6 4 12.258 12.587 0.385 6.809 o
6 6 5 20.854 20.013 0.606 2.747 o
6 6 6 23.066 23.021 0.650 2.386 o
6 6 7 2.325 2.427 0.109 85.064 o
6 6 8 7.886 7.968 0.270 13.828 o
6 6 9 19.151 19.193 0.741 1.839 o
6 6 10 8.903 9.232 0.306 10.758 o
6 6 11 5.817 5.685 0.202 24.814 o
6 6 12 10.562 10.226 0.341 8.690 o
6 6 13 6.666 7.002 0.275 13.293 o
6 6 14 3.050 2.966 0.130 59.761 o
6 6 15 5.585 5.584 0.196 26.341 o
6 6 16 2.526 2.490 0.119 71.066 o
6 6 17 2.902 3.093 0.120 69.797 o
6 6 18 0.815 0.869 0.073 187.660 o
6 6 19 0.467 0.618 0.085 139.038 o
6 6 20 0.042 0.004 0.075 179.647 o
6 6 21 0.776 0.815 0.099 103.645 o
6 6 22 0.414 0.645 0.099 102.521 o
6 6 23 0.470 0.696 0.085 139.038 o
6 6 24 0.094 0.082 0.098 105.948 o
6 6 25 0.118 0.268 0.096 109.549 o
6 6 26 0.090 0.265 0.089 125.960 o
6 7 0 1.341 1.326 0.094 113.337 o
6 7 1 20.588 20.832 0.648 2.398 o
6 7 2 19.188 19.185 0.602 2.787 o
6 7 3 17.271 16.850 0.512 3.846 o
6 7 4 14.585 14.588 0.451 4.966 o
6 7 5 3.108 3.339 0.120 70.428 o
6 7 6 5.766 6.169 0.202 24.682 o
6 7 7 5.848 5.642 0.303 10.989 o
6 7 8 11.935 12.080 0.401 6.271 o
6 7 9 1.269 1.384 0.082 148.274 o
6 7 10 3.016 3.102 0.124 65.614 o
6 7 11 4.887 4.850 0.184 29.850 o
6 7 12 2.809 2.631 0.117 73.710 o
6 7 13 1.916 1.896 0.094 114.644 o
6 7 14 0.677 0.646 0.076 174.586 o
6 7 15 4.083 4.136 0.153 43.339 o
6 7 16 1.545 1.469 0.092 120.102 o
6 7 17 1.148 1.146 0.090 124.456 o
6 7 18 0.977 0.945 0.107 88.536 o
6 7 19 1.805 1.632 0.119 71.066 o
6 7 20 0.780 0.882 0.073 187.660 o
6 7 21 1.277 1.185 0.085 139.038 o
6 7 22 0.597 0.751 0.092 120.102 o
6 7 23 0.071 0.064 0.088 129.051 o
6 7 24 0.269 0.326 0.100 100.328 o
6 7 25 0.099 0.193 0.091 121.528 o
6 8 0 14.652 14.511 0.459 4.793 o
6 8 1 0.307 0.312 0.070 205.382 o
6 8 2 1.745 1.723 0.087 132.257 o
6 8 3 2.494 2.551 0.103 95.144 o
6 8 4 5.740 5.676 0.188 28.661 o
6 8 5 2.488 2.646 0.105 91.281 o
6 8 6 3.991 4.106 0.148 45.897 o
6 8 7 3.962 3.996 0.136 54.657 o
6 8 8 0.762 0.857 0.119 71.066 o
6 8 9 1.758 2.066 0.112 80.227 o
6 8 10 0.547 0.576 0.140 51.345 o
6 8 11 3.426 3.849 0.147 46.572 o
6 8 12 0.055 0.250 0.072 193.303 o
6 8 13 1.571 1.573 0.088 130.639 o
6 8 14 1.293 1.224 0.095 112.053 o
6 8 15 1.166 1.362 0.094 114.644 o
6 8 16 1.574 1.451 0.127 62.320 o
6 8 17 2.220 2.289 0.111 82.593 o
6 8 18 1.061 0.993 0.092 118.702 o
6 8 19 0.545 0.574 0.082 150.232 o
6 8 20 0.986 0.993 0.085 139.038 o
6 8 21 0.200 0.123 0.102 96.148 o
6 8 22 0.449 0.679 0.092 118.702 o
6 8 23 0.332 0.557 0.098 105.948 o
6 9 0 0.052 0.054 0.059 292.143 o
6 9 1 0.362 0.413 0.060 281.710 o
6 9 2 2.798 2.880 0.111 82.593 o
6 9 3 4.533 4.706 0.167 36.118 o
6 9 4 0.824 0.904 0.068 215.199 o
6 9 5 1.523 1.438 0.079 160.625 o
6 9 6 0.510 0.515 0.065 237.071 o
6 9 7 2.394 2.688 0.140 51.345 o
6 9 8 0.341 0.319 0.098 105.948 o
6 9 9 2.691 2.404 0.190 27.855 o
6 9 10 0.844 0.831 0.084 142.626 o
6 9 11 1.761 1.942 0.101 99.258 o
6 9 12 1.697 1.704 0.126 63.935 o
6 9 13 0.841 0.885 0.116 75.088 o
6 9 14 0.201 0.238 0.102 97.168 o
6 9 15 2.914 2.805 0.142 50.181 o
6 9 16 0.751 0.786 0.116 74.394 o
6 9 17 0.062 0.003 0.097 107.128 o
6 9 18 0.383 0.269 0.081 154.265 o
6 9 19 0.397 0.535 0.082 148.274 o
6 9 20 0.250 0.319 0.108 85.912 o
6 9 21 0.447 0.385 0.135 55.094 o
6 9 22 0.096 0.129 0.119 71.714 o
6 10 0 0.155 0.178 0.072 196.221 o
6 10 1 0.492 0.578 0.091 121.528 o
6 10 2 0.717 0.665 0.087 133.905 o
6 10 3 0.087 0.207 0.070 205.382 o
6 10 4 0.329 0.372 0.067 222.141 o
6 10 5 0.191 0.165 0.067 225.738 o
6 10 6 0.210 0.243 0.073 187.660 o
6 10 7 0.583 0.739 0.076 174.586 o
6 10 8 1.310 1.179 0.079 162.833 o
6 10 9 0.212 0.286 0.068 215.199 o
6 10 10 0.774 0.868 0.083 146.355 o
6 10 11 1.115 1.271 0.097 107.128 o
6 10 12 0.193 0.277 0.071 202.258 o
6 10 13 0.640 0.607 0.090 124.456 o
6 10 14 0.509 0.678 0.087 133.905 o
6 10 15 0.195 0.368 0.094 113.337 o
6 10 16 0.097 0.339 0.081 152.228 o
6 10 17 0.211 0.316 0.080 156.342 o
6 10 18 0.034 0.160 0.103 95.144 o
6 10 19 0.181 0.190 0.092 118.702 o
6 10 20 0.058 0.160 0.103 94.156 o
6 11 0 0.858 0.768 0.108 86.774 o
6 11 1 0.544 0.608 0.089 125.960 o
6 11 2 0.077 0.169 0.072 196.221 o
6 11 3 1.875 1.866 0.114 77.228 o
6 11 4 0.595 0.515 0.070 205.382 o
6 11 5 0.545 0.626 0.070 208.578 o
6 11 6 0.573 0.678 0.072 196.221 o
6 11 7 0.716 0.643 0.076 174.586 o
6 11 8 0.045 0.092 0.091 121.528 o
6 11 9 1.467 1.621 0.114 77.962 o
6 11 10 0.243 0.336 0.098 104.787 o
6 11 11 0.005 0.132 0.074 182.260 o
6 11 12 0.140 0.213 0.078 167.388 o
6 11 13 0.169 0.240 0.082 148.274 o
6 11 14 0.155 0.301 0.103 95.144 o
6 11 15 0.229 0.264 0.084 144.473 o
6 11 16 0.001 0.100 0.082 148.274 o
6 11 17 0.197 0.299 0.094 113.337 o
6 11 18 0.102 0.213 0.095 110.790 o
6 12 0 0.126 0.293 0.073 187.660 o
6 12 1 0.275 0.314 0.073 190.450 o
6 12 2 0.241 0.265 0.075 177.089 o
6 12 3 0.027 0.264 0.073 190.450 o
6 12 4 0.194 0.320 0.100 100.328 o
6 12 5 0.341 0.280 0.072 196.221 o
6 12 6 0.039 0.050 0.075 177.089 o
6 12 7 0.235 0.381 0.105 91.281 o
6 12 8 0.120 0.231 0.079 160.625 o
6 12 9 0.010 0.122 0.080 156.342 o
6 12 10 0.024 0.008 0.089 125.960 o
6 12 11 0.083 0.268 0.085 139.038 o
6 12 12 0.105 0.235 0.080 156.342 o
6 12 13 0.070 0.050 0.082 150.232 o
6 12 14 0.010 0.240 0.085 140.815 o
6 12 15 0.322 0.360 0.155 41.847 o
6 13 0 0.002 0.161 0.079 160.625 o
6 13 1 0.072 0.253 0.077 172.136 o
6 13 2 0.111 0.061 0.078 165.087 o
6 13 3 0.232 0.285 0.086 135.584 o
6 13 4 0.003 0.096 0.099 102.521 o
6 13 5 0.086 0.236 0.091 121.528 o
6 13 6 0.062 0.099 0.086 135.584 o
6 13 7 0.058 0.099 0.107 87.648 o
6 13 8 0.064 0.142 0.105 92.224 o
6 13 9 0.327 0.485 0.121 69.175 o
6 13 10 0.054 0.230 0.118 73.036 o
6 13 11 0.263 0.392 0.126 63.389 o
6 14 0 0.002 0.036 0.105 92.224 o
6 14 1 0.016 0.009 0.088 130.639 o
6 14 2 0.033 0.150 0.089 127.491 o
6 14 3 0.014 0.164 0.092 120.102 o
7 0 1 48.449 48.520 1.657 0.367 o
7 0 2 305.560 312.916 9.940 0.010 o
7 0 3 0.256 0.330 0.047 448.212 o
7 0 4 11.992 11.954 0.369 7.397 o
7 0 5 19.182 19.417 0.599 2.807 o
7 0 6 23.104 22.851 0.680 2.179 o
7 0 7 22.964 22.846 0.700 2.060 o
7 0 8 3.092 3.299 0.113 79.461 o
7 0 9 1.433 1.507 0.080 158.462 o
7 0 10 1.310 1.417 0.074 184.930 o
7 0 11 13.976 13.759 0.429 5.492 o
7 0 12 4.600 4.942 0.171 34.324 o
7 0 13 5.513 5.452 0.233 18.599 o
7 0 14 0.010 0.080 0.053 354.143 o
7 0 15 0.469 0.554 0.057 308.914 o
7 0 16 23.184 23.052 0.693 2.099 o
7 0 17 0.657 0.562 0.065 237.071 o
7 0 18 0.083 0.108 0.063 253.558 o
7 0 19 0.555 0.606 0.078 167.388 o
7 0 20 17.379 17.092 0.526 3.651 o
7 0 21 0.005 0.028 0.070 205.382 o
7 0 22 0.567 0.574 0.089 127.491 o
7 0 23 1.123 0.880 0.077 169.737 o
7 0 24 2.371 2.279 0.106 90.352 o
7 0 25 0.075 0.167 0.083 146.355 o
7 0 26 0.701 0.708 0.087 132.257 o
7 0 27 0.431 0.321 0.094 113.337 o
7 1 0 147.929 154.550 5.066 0.039 o
7 1 1 18.061 18.281 0.745 1.817 o
7 1 2 38.405 39.172 1.792 0.314 o
7 1 3 50.347 50.525 2.104 0.228 o
7 1 4 71.951 71.210 2.915 0.119 o
7 1 5 20.287 20.247 0.685 2.152 o
7 1 6 34.691 34.699 1.007 0.995 o
7 1 7 5.259 5.508 0.174 33.269 o
7 1 8 22.296 22.358 0.680 2.179 o
7 1 9 36.821 35.442 1.138 0.779 o
7 1 10 7.306 7.384 0.228 19.398 o
7 1 11 7.377 7.366 0.238 17.847 o
7 1 12 1.375 1.359 0.066 229.424 o
7 1 13 15.199 15.053 0.452 4.931 o
7 1 14 8.142 8.089 0.271 13.773 o
7 1 15 9.944 9.543 0.318 10.005 o
7 1 16 4.362 4.569 0.213 22.134 o
7 1 17 4.313 4.165 0.150 44.912 o
7 1 18 9.868 9.586 0.343 8.581 o
7 1 19 2.134 1.920 0.113 78.706 o
7 1 20 1.802 1.733 0.091 122.979 o
7 1 21 1.664 1.557 0.085 139.038 o
7 1 22 3.482 3.199 0.163 37.806 o
7 1 23 0.246 0.227 0.082 148.274 o
7 1 24 1.394 1.290 0.095 110.790 o
7 1 25 0.599 0.601 0.104 93.182 o
7 1 26 0.258 0.371 0.081 152.228 o
7 1 27 0.210 0.138 0.085 140.815 o
7 2 0 0.855 0.966 0.045 503.840 o
7 2 1 26.015 26.303 0.954 1.108 o
7 2 2 6.062 5.847 0.195 26.487 o
7 2 3 11.440 11.248 0.363 7.641 o
7 2 4 62.366 62.135 2.028 0.245 o
7 2 5 32.794 33.368 1.074 0.874 o
7 2 6 14.773 14.621 0.749 1.799 o
7 2 7 51.664 50.316 1.666 0.364 o
7 2 8 25.800 24.587 1.057 0.904 o
7 2 9 0.758 0.801 0.062 262.454 o
7 2 10 2.233 2.365 0.088 130.639 o
7 2 11 40.484 40.953 1.270 0.625 o
7 2 12 0.273 0.355 0.053 361.407 o
7 2 13 14.094 13.508 0.411 5.978 o
7 2 14 7.897 7.893 0.260 14.878 o
7 2 15 9.914 9.623 0.309 10.535 o
7 2 16 0.177 0.313 0.063 253.558 o
7 2 17 10.664 10.628 0.406 6.105 o
7 2 18 1.214 1.146 0.092 118.702 o
7 2 19 1.959 2.013 0.106 90.352 o
7 2 20 0.071 0.100 0.069 211.850 o
7 2 21 2.535 2.433 0.135 55.535 o
7 2 22 1.227 1.121 0.089 125.960 o
7 2 23 0.620 0.585 0.077 169.737 o
7 2 24 0.030 0.121 0.080 158.462 o
7 2 25 0.629 0.611 0.080 158.462 o
7 2 26 0.562 0.638 0.081 152.228 o
7 2 27 0.109 0.047 0.088 129.051 o
7 3 0 1.842 2.057 0.072 193.303 o
7 3 1 0.811 0.913 0.049 419.146 o
7 3 2 67.184 68.124 2.357 0.182 o
7 3 3 19.034 20.049 0.677 2.204 o
7 3 4 5.791 6.235 0.216 21.694 o
7 3 5 17.069 17.371 0.692 2.109 o
7 3 6 4.732 5.016 0.211 22.588 o
7 3 7 12.228 12.498 0.419 5.734 o
7 3 8 6.321 6.556 0.261 14.817 o
7 3 9 39.891 38.494 1.778 0.319 o
7 3 10 14.213 13.737 0.433 5.383 o
7 3 11 3.888 3.730 0.172 33.896 o
7 3 12 0.641 0.662 0.061 271.826 o
7 3 13 10.420 10.392 0.328 9.359 o
7 3 14 11.740 11.373 0.380 6.983 o
7 3 15 10.661 10.091 0.323 9.642 o
7 3 16 0.200 0.234 0.063 253.558 o
7 3 17 0.439 0.478 0.083 146.355 o
7 3 18 1.162 0.956 0.080 156.342 o
7 3 19 4.117 3.748 0.140 51.743 o
7 3 20 0.747 0.711 0.077 169.737 o
7 3 21 0.680 0.738 0.079 160.625 o
7 3 22 0.132 0.116 0.074 184.930 o
7 3 23 0.903 0.907 0.075 177.089 o
7 3 24 0.167 0.245 0.078 167.388 o
7 3 25 0.310 0.343 0.079 162.833 o
7 3 26 0.173 0.304 0.078 167.388 o
7 3 27 0.533 0.680 0.089 125.960 o
7 4 0 69.011 68.790 2.163 0.216 o
7 4 1 6.358 6.682 0.251 16.052 o
7 4 2 4.010 3.947 0.130 59.268 o
7 4 3 3.733 3.600 0.115 75.792 o
7 4 4 24.758 24.624 0.941 1.139 o
7 4 5 9.941 10.223 0.384 6.847 o
7 4 6 6.974 7.085 0.257 15.319 o
7 4 7 9.346 9.437 0.325 9.546 o
7 4 8 16.665 16.619 0.547 3.369 o
7 4 9 2.156 2.094 0.114 77.962 o
7 4 10 11.572 11.236 0.360 7.779 o
7 4 11 11.028 11.101 0.356 7.944 o
7 4 12 11.674 11.452 0.367 7.484 o
7 4 13 4.936 5.051 0.176 32.460 o
7 4 14 4.259 4.627 0.245 16.840 o
7 4 15 0.570 0.575 0.063 257.948 o
7 4 16 0.831 0.710 0.072 196.221 o
7 4 17 2.870 2.729 0.113 79.461 o
7 4 18 0.820 0.830 0.090 124.456 o
7 4 19 0.979 0.902 0.080 156.342 o
7 4 20 0.034 0.149 0.070 208.578 o
7 4 21 0.223 0.271 0.070 205.382 o
7 4 22 0.097 0.176 0.072 196.221 o
7 4 23 0.569 0.609 0.088 130.639 o
7 4 24 0.169 0.240 0.078 167.388 o
7 4 25 0.075 0.241 0.084 142.626 o
7 4 26 0.168 0.329 0.088 129.051 o
7 5 0 1.267 1.334 0.060 281.710 o
7 5 1 10.587 10.785 0.334 9.030 o
7 5 2 6.444 6.713 0.210 22.820 o
7 5 3 4.966 5.079 0.176 32.460 o
7 5 4 31.871 31.518 0.962 1.089 o
7 5 5 2.525 2.625 0.099 102.521 o
7 5 6 3.811 3.778 0.173 33.685 o
7 5 7 3.324 3.576 0.136 54.226 o
7 5 8 27.654 27.890 0.878 1.310 o
7 5 9 4.865 4.841 0.169 35.429 o
7 5 10 0.610 0.653 0.065 241.038 o
7 5 11 1.532 1.467 0.080 158.462 o
7 5 12 3.596 3.650 0.135 55.094 o
7 5 13 2.825 2.817 0.113 79.461 o
7 5 14 0.515 0.616 0.089 125.960 o
7 5 15 3.376 3.176 0.160 39.349 o
7 5 16 0.213 0.218 0.073 187.660 o
7 5 17 0.525 0.480 0.074 182.260 o
7 5 18 0.261 0.324 0.100 100.328 o
7 5 19 0.086 0.149 0.067 225.738 o
7 5 20 0.366 0.445 0.075 179.647 o
7 5 21 0.269 0.374 0.072 193.303 o
7 5 22 0.082 0.139 0.069 211.850 o
7 5 23 0.118 0.140 0.082 150.232 o
7 5 24 0.191 0.374 0.092 120.102 o
7 5 25 0.233 0.385 0.091 121.528 o
7 6 0 2.921 3.084 0.132 57.825 o
7 6 1 2.883 3.052 0.114 77.962 o
7 6 2 12.822 13.065 0.397 6.408 o
7 6 3 2.539 2.729 0.099 103.645 o
7 6 4 1.978 2.169 0.083 146.355 o
7 6 5 6.500 6.728 0.230 19.037 o
7 6 6 28.181 28.094 0.865 1.349 o
7 6 7 0.878 0.884 0.074 182.260 o
7 6 8 3.465 3.398 0.147 46.572 o
7 6 9 2.010 2.255 0.099 103.645 o
7 6 10 10.233 10.606 0.357 7.920 o
7 6 11 3.572 3.516 0.170 34.981 o
7 6 12 1.986 2.108 0.098 104.787 o
7 6 13 2.964 3.073 0.135 55.535 o
7 6 14 2.090 2.311 0.129 60.260 o
7 6 15 0.425 0.528 0.073 187.660 o
7 6 16 0.015 0.078 0.080 156.342 o
7 6 17 0.572 0.656 0.077 169.737 o
7 6 18 1.040 1.067 0.082 150.232 o
7 6 19 0.045 0.204 0.079 160.625 o
7 6 20 0.392 0.402 0.085 140.815 o
7 6 21 0.176 0.245 0.073 190.450 o
7 6 22 0.232 0.201 0.083 146.355 o
7 6 23 0.016 0.066 0.089 127.491 o
7 6 24 0.075 -0.022 0.308 10.609 o
7 6 25 0.004 -0.027 0.325 9.578 o
7 7 0 5.404 5.432 0.184 29.675 o
7 7 1 0.491 0.475 0.055 333.617 o
7 7 2 11.463 11.496 0.363 7.641 o
7 7 3 3.469 3.330 0.123 66.188 o
7 7 4 2.083 2.204 0.101 99.258 o
7 7 5 2.117 1.997 0.082 150.232 o
7 7 6 0.454 0.483 0.068 215.199 o
7 7 7 4.358 4.329 0.182 30.562 o
7 7 8 4.084 3.959 0.176 32.660 o
7 7 9 6.423 6.244 0.227 19.583 o
7 7 10 3.640 3.812 0.142 49.801 o
7 7 11 1.320 1.603 0.117 73.710 o
7 7 12 2.585 2.522 0.125 64.487 o
7 7 13 1.854 1.854 0.096 109.549 o
7 7 14 2.715 2.724 0.159 39.885 o
7 7 15 0.668 0.643 0.096 109.549 o
7 7 16 0.316 0.467 0.094 113.337 o
7 7 17 0.105 0.148 0.076 174.586 o
7 7 18 0.924 0.924 0.096 108.328 o
7 7 19 0.348 0.257 0.077 172.136 o
7 7 20 0.095 0.184 0.080 158.462 o
7 7 21 0.030 0.142 0.095 110.790 o
7 7 22 0.066 0.124 0.087 133.905 o
7 7 23 0.160 0.250 0.084 144.473 o
7 8 0 11.706 11.818 0.384 6.828 o
7 8 1 1.120 1.112 0.072 193.303 o
7 8 2 0.582 0.612 0.077 169.737 o
7 8 3 1.745 1.656 0.093 117.325 o
7 8 4 7.812 7.960 0.252 15.847 o
7 8 5 1.863 1.823 0.088 129.051 o
7 8 6 0.024 0.006 0.056 320.909 o
7 8 7 4.869 4.760 0.179 31.490 o
7 8 8 5.948 6.193 0.216 21.585 o
7 8 9 0.712 0.886 0.082 148.274 o
7 8 10 0.165 0.300 0.072 193.303 o
7 8 11 2.852 2.773 0.122 67.957 o
7 8 12 5.311 5.539 0.232 18.772 o
7 8 13 0.248 0.172 0.070 205.382 o
7 8 14 0.986 1.196 0.103 95.144 o
7 8 15 0.467 0.598 0.098 105.948 o
7 8 16 1.393 1.359 0.098 104.787 o
7 8 17 0.256 0.417 0.080 156.342 o
7 8 18 0.245 0.309 0.112 80.227 o
7 8 19 0.108 0.045 0.080 156.342 o
7 8 20 0.124 0.164 0.084 144.473 o
7 8 21 0.250 0.383 0.084 142.626 o
7 8 22 0.217 0.291 0.087 133.905 o
7 9 0 3.297 3.371 0.136 54.226 o
7 9 1 0.193 0.246 0.062 262.454 o
7 9 2 2.633 2.449 0.101 99.258 o
7 9 3 0.505 0.553 0.066 229.424 o
7 9 4 3.236 3.268 0.129 60.260 o
7 9 5 0.601 0.646 0.071 199.205 o
7 9 6 6.850 6.775 0.220 20.851 o
7 9 7 0.114 0.126 0.073 187.660 o
7 9 8 2.527 2.493 0.135 55.094 o
7 9 9 0.548 0.532 0.077 169.737 o
7 9 10 2.520 2.636 0.124 65.614 o
7 9 11 0.061 0.067 0.073 190.450 o
7 9 12 1.750 1.578 0.140 51.743 o
7 9 13 0.320 0.385 0.079 162.833 o
7 9 14 0.509 0.480 0.125 64.487 o
7 9 15 0.055 0.213 0.083 146.355 o
7 9 16 0.533 0.606 0.084 144.473 o
7 9 17 0.169 0.318 0.082 148.274 o
7 9 18 0.450 0.477 0.126 63.935 o
7 9 19 0.018 0.085 0.098 104.787 o
7 9 20 0.460 0.615 0.091 121.528 o
7 10 0 0.051 0.127 0.065 237.071 o
7 10 1 0.310 0.370 0.066 233.200 o
7 10 2 7.998 7.952 0.250 16.192 o
7 10 3 0.274 0.290 0.064 245.106 o
7 10 4 0.708 0.753 0.069 211.850 o
7 10 5 0.283 0.308 0.091 121.528 o
7 10 6 4.731 4.809 0.171 34.324 o
7 10 7 0.443 0.377 0.111 81.793 o
7 10 8 0.248 0.285 0.075 177.089 o
7 10 9 0.035 0.108 0.065 241.038 o
7 10 10 1.202 1.272 0.090 124.456 o
7 10 11 0.235 0.288 0.087 132.257 o
7 10 12 0.135 0.127 0.087 133.905 o
7 10 13 0.036 0.062 0.080 156.342 o
7 10 14 0.101 0.255 0.081 152.228 o
7 10 15 0.023 0.053 0.082 148.274 o
7 10 16 0.794 0.778 0.101 98.205 o
7 10 17 0.148 0.267 0.080 158.462 o
7 10 18 0.452 0.456 0.082 148.274 o
7 11 0 3.370 3.143 0.120 70.428 o
7 11 1 0.631 0.611 0.072 196.221 o
7 11 2 0.320 0.232 0.071 202.258 o
7 11 3 0.498 0.544 0.074 182.260 o
7 11 4 1.454 1.496 0.088 129.051 o
7 11 5 1.052 1.018 0.081 152.228 o
7 11 6 0.101 0.175 0.069 211.850 o
7 11 7 0.097 0.118 0.076 174.586 o
7 11 8 0.220 0.347 0.072 193.303 o
7 11 9 1.237 1.339 0.136 54.226 o
7 11 10 0.006 -0.010 0.303 10.989 o
7 11 11 0.072 0.273 0.089 125.960 o
7 11 12 0.005 0.099 0.082 148.274 o
7 11 13 0.581 0.754 0.084 142.626 o
7 11 14 0.376 0.531 0.082 148.274 o
7 11 15 0.355 0.272 0.082 150.232 o
7 11 16 0.115 0.068 0.108 85.912 o
7 12 0 0.795 0.749 0.081 154.265 o
7 12 1 0.409 0.530 0.079 160.625 o
7 12 2 0.025 0.130 0.080 158.462 o
7 12 3 0.414 0.430 0.119 71.066 o
7 12 4 0.336 0.515 0.080 158.462 o
7 12 5 0.198 0.326 0.085 140.815 o
7 12 6 0.131 0.224 0.109 85.064 o
7 12 7 0.753 0.706 0.084 142.626 o
7 12 8 0.021 0.220 0.087 133.905 o
7 12 9 0.015 0.133 0.091 122.979 o
7 12 10 0.013 0.172 0.080 158.462 o
7 12 11 0.753 0.792 0.096 108.328 o
7 12 12 0.301 0.444 0.088 130.639 o
7 12 13 0.213 0.450 0.123 66.770 o
7 13 0 0.469 0.494 0.087 132.257 o
7 13 1 0.065 0.129 0.098 104.787 o
7 13 2 0.054 0.117 0.082 148.274 o
7 13 3 0.134 0.181 0.113 79.461 o
7 13 4 0.305 0.271 0.096 109.549 o
7 13 5 0.106 0.130 0.135 55.094 o
7 13 6 0.021 0.130 0.097 107.128 o
7 13 7 0.032 0.183 0.120 69.797 o
7 13 8 0.036 0.172 0.099 103.645 o
8 0 0 14.915 16.113 0.746 1.815 o
8 0 1 1.783 1.839 0.101 99.258 o
8 0 2 6.144 6.522 0.227 19.583 o
8 0 3 10.499 10.754 0.343 8.554 o
8 0 4 0.848 0.962 0.065 241.038 o
8 0 5 0.017 0.026 0.045 503.840 o
8 0 6 5.738 5.972 0.182 30.562 o
8 0 7 30.856 30.860 0.920 1.191 o
8 0 8 35.751 34.967 1.051 0.913 o
8 0 9 5.725 5.582 0.175 33.064 o
8 0 10 1.926 1.886 0.076 174.586 o
8 0 11 16.917 16.429 0.563 3.185 o
8 0 12 12.285 11.986 0.431 5.437 o
8 0 13 11.204 10.866 0.342 8.608 o
8 0 14 2.763 2.642 0.099 103.645 o
8 0 15 0.095 0.205 0.057 314.826 o
8 0 16 0.014 0.029 0.066 229.424 o
8 0 17 1.899 1.782 0.096 108.328 o
8 0 18 0.157 0.298 0.065 237.071 o
8 0 19 1.289 1.345 0.092 118.702 o
8 0 20 0.222 0.376 0.069 211.850 o
8 0 21 0.064 0.189 0.088 129.051 o
8 0 22 0.271 0.431 0.099 102.521 o
8 0 23 0.205 0.120 0.085 140.815 o
8 0 24 0.102 0.281 0.108 86.774 o
8 0 25 0.044 0.049 0.110 83.404 o
8 0 26 0.529 0.467 0.081 154.265 o
8 1 0 4.655 4.871 0.167 36.118 o
8 1 1 13.852 14.232 0.460 4.759 o
8 1 2 11.202 12.180 0.464 4.682 o
8 1 3 15.265 15.955 0.638 2.480 o
8 1 4 20.027 19.808 0.854 1.382 o
8 1 5 43.568 42.447 1.394 0.519 o
8 1 6 6.298 6.188 0.213 22.246 o
8 1 7 34.982 35.338 1.038 0.936 o
8 1 8 2.054 2.087 0.089 127.491 o
8 1 9 23.155 22.421 0.680 2.183 o
8 1 10 12.584 12.471 0.383 6.885 o
8 1 11 28.607 27.942 0.839 1.434 o
8 1 12 2.425 2.367 0.117 73.710 o
8 1 13 5.415 5.297 0.187 28.993 o
8 1 14 0.530 0.493 0.076 174.586 o
8 1 15 10.294 9.978 0.396 6.443 o
8 1 16 0.824 0.731 0.103 95.144 o
8 1 17 2.992 2.815 0.142 50.181 o
8 1 18 0.403 0.443 0.065 237.071 o
8 1 19 0.374 0.441 0.071 199.205 o
8 1 20 0.054 0.185 0.070 208.578 o
8 1 21 0.668 0.843 0.073 187.660 o
8 1 22 0.203 0.239 0.073 190.450 o
8 1 23 0.183 0.152 0.072 196.221 o
8 1 24 0.257 0.445 0.081 152.228 o
8 1 25 0.425 0.495 0.091 121.528 o
8 1 26 0.011 0.194 0.089 127.491 o
8 2 0 37.102 38.152 1.186 0.717 o
8 2 1 27.493 28.466 0.997 1.014 o
8 2 2 15.812 16.011 0.566 3.148 o
8 2 3 13.098 13.367 0.477 4.432 o
8 2 4 10.557 10.309 0.400 6.304 o
8 2 5 25.854 26.079 0.866 1.344 o
8 2 6 25.826 25.928 0.834 1.450 o
8 2 7 17.804 17.438 0.583 2.970 o
8 2 8 0.362 0.481 0.060 276.702 o
8 2 9 4.864 4.897 0.175 33.064 o
8 2 10 1.278 1.162 0.061 267.078 o
8 2 11 2.895 2.841 0.110 83.404 o
8 2 12 0.073 0.034 0.056 327.171 o
8 2 13 10.001 10.155 0.362 7.686 o
8 2 14 0.883 0.848 0.093 115.973 o
8 2 15 1.304 1.273 0.092 120.102 o
8 2 16 0.700 0.644 0.082 148.274 o
8 2 17 3.875 3.832 0.151 44.272 o
8 2 18 0.111 0.219 0.067 222.141 o
8 2 19 1.089 0.986 0.078 167.388 o
8 2 20 1.434 1.515 0.086 135.584 o
8 2 21 0.198 0.238 0.081 152.228 o
8 2 22 0.272 0.300 0.071 199.205 o
8 2 23 0.434 0.444 0.077 169.737 o
8 2 24 0.636 0.660 0.086 137.295 o
8 2 25 0.013 0.115 0.089 125.960 o
8 2 26 0.347 0.378 0.085 140.815 o
8 3 0 3.496 3.359 0.111 81.793 o
8 3 1 39.237 39.872 1.351 0.552 o
8 3 2 37.895 38.897 1.309 0.588 o
8 3 3 17.634 17.918 0.599 2.807 o
8 3 4 19.872 20.438 0.688 2.132 o
8 3 5 11.738 11.224 0.447 5.051 o
8 3 6 11.176 11.046 0.377 7.104 o
8 3 7 9.171 9.009 0.312 10.354 o
8 3 8 11.696 11.640 0.386 6.752 o
8 3 9 5.021 5.226 0.189 28.334 o
8 3 10 1.579 1.514 0.093 115.973 o
8 3 11 25.789 23.904 0.917 1.200 o
8 3 12 3.436 3.503 0.153 43.034 o
8 3 13 0.577 0.680 0.067 222.141 o
8 3 14 0.967 1.076 0.110 83.404 o
8 3 15 5.010 5.025 0.171 34.324 o
8 3 16 2.344 2.464 0.106 89.437 o
8 3 17 1.245 1.207 0.082 150.232 o
8 3 18 2.042 1.925 0.110 83.404 o
8 3 19 1.139 1.274 0.340 8.717 o
8 3 20 0.946 1.107 0.092 120.102 o
8 3 21 0.195 0.150 0.078 167.388 o
8 3 22 1.623 1.448 0.100 100.328 o
8 3 23 0.482 0.483 0.097 107.128 o
8 3 24 0.835 0.891 0.101 99.258 o
8 3 25 0.125 0.171 0.100 100.328 o
8 4 0 21.857 22.044 0.679 2.190 o
8 4 1 4.636 4.847 0.156 41.558 o
8 4 2 7.308 7.389 0.235 18.259 o
8 4 3 3.228 3.220 0.137 53.800 o
8 4 4 11.332 11.563 0.401 6.287 o
8 4 5 3.331 3.353 0.129 60.260 o
8 4 6 4.819 4.848 0.176 32.460 o
8 4 7 10.222 10.081 0.354 8.066 o
8 4 8 1.262 1.312 0.079 160.625 o
8 4 9 31.576 30.765 1.010 0.988 o
8 4 10 3.775 3.754 0.185 29.331 o
8 4 11 1.627 1.700 0.092 120.102 o
8 4 12 0.394 0.416 0.059 286.856 o
8 4 13 12.885 12.304 0.391 6.585 o
8 4 14 4.929 5.088 0.190 28.013 o
8 4 15 0.574 0.691 0.072 196.221 o
8 4 16 2.399 2.194 0.172 33.896 o
8 4 17 0.097 0.214 0.065 237.071 o
8 4 18 2.035 1.818 0.104 93.182 o
8 4 19 0.797 0.716 0.080 158.462 o
8 4 20 3.116 2.957 0.199 25.491 o
8 4 21 0.482 0.514 0.074 182.260 o
8 4 22 0.503 0.510 0.073 190.450 o
8 4 23 0.525 0.554 0.081 152.228 o
8 4 24 0.696 0.682 0.116 75.088 o
8 4 25 0.123 0.192 0.102 97.168 o
8 5 0 10.289 9.828 0.307 10.683 o
8 5 1 12.826 12.489 0.374 7.207 o
8 5 2 0.390 0.598 0.055 333.617 o
8 5 3 1.153 1.217 0.065 237.071 o
8 5 4 4.046 4.261 0.199 25.491 o
8 5 5 38.462 38.022 1.277 0.618 o
8 5 6 0.286 0.257 0.064 245.106 o
8 5 7 4.005 4.188 0.163 37.806 o
8 5 8 0.462 0.595 0.074 182.260 o
8 5 9 6.245 6.297 0.243 17.140 o
8 5 10 0.570 0.678 0.077 172.136 o
8 5 11 4.792 4.534 0.174 33.476 o
8 5 12 1.511 1.445 0.080 156.342 o
8 5 13 4.402 4.219 0.160 39.615 o
8 5 14 1.170 1.223 0.082 148.274 o
8 5 15 1.672 1.530 0.088 129.051 o
8 5 16 1.344 1.456 0.088 129.051 o
8 5 17 6.529 6.460 0.245 16.766 o
8 5 18 3.518 3.392 0.153 43.034 o
8 5 19 1.777 1.808 0.096 109.549 o
8 5 20 0.069 0.058 0.078 167.388 o
8 5 21 1.419 1.459 0.091 121.528 o
8 5 22 1.748 1.943 0.136 54.226 o
8 5 23 0.959 1.209 0.125 65.047 o
8 5 24 0.647 0.734 0.097 107.128 o
8 6 0 7.394 7.330 0.240 17.449 o
8 6 1 0.026 0.137 0.049 428.513 o
8 6 2 2.479 2.546 0.098 105.948 o
8 6 3 12.679 12.223 0.377 7.104 o
8 6 4 3.849 3.859 0.140 51.743 o
8 6 5 1.305 1.307 0.086 137.295 o
8 6 6 1.557 1.477 0.075 177.089 o
8 6 7 10.205 9.964 0.316 10.108 o
8 6 8 0.637 0.604 0.066 229.424 o
8 6 9 0.893 0.860 0.072 193.303 o
8 6 10 1.507 1.444 0.081 152.228 o
8 6 11 3.029 2.861 0.113 78.706 o
8 6 12 0.218 0.249 0.068 218.629 o
8 6 13 1.710 1.625 0.092 118.702 o
8 6 14 2.913 2.967 0.136 54.657 o
8 6 15 5.751 5.394 0.203 24.551 o
8 6 16 1.558 1.578 0.114 77.962 o
8 6 17 1.667 1.738 0.108 86.774 o
8 6 18 2.037 2.113 0.112 80.227 o
8 6 19 1.007 1.004 0.088 129.051 o
8 6 20 1.744 1.682 0.095 110.790 o
8 6 21 0.970 0.978 0.088 129.051 o
8 6 22 1.124 1.164 0.111 82.593 o
8 6 23 0.038 0.162 0.105 92.224 o
8 7 0 0.128 0.266 0.053 354.143 o
8 7 1 6.279 6.342 0.202 24.682 o
8 7 2 8.798 8.547 0.267 14.166 o
8 7 3 5.413 5.412 0.171 34.324 o
8 7 4 1.305 1.421 0.075 179.647 o
8 7 5 1.009 0.945 0.064 249.278 o
8 7 6 0.982 1.149 0.080 156.342 o
8 7 7 0.480 0.528 0.065 237.071 o
8 7 8 1.228 1.266 0.081 154.265 o
8 7 9 4.615 4.718 0.218 21.266 o
8 7 10 0.199 0.327 0.071 199.205 o
8 7 11 2.683 2.938 0.127 62.851 o
8 7 12 2.607 2.624 0.110 83.404 o
8 7 13 4.115 4.216 0.168 35.657 o
8 7 14 0.373 0.467 0.080 156.342 o
8 7 15 0.662 0.781 0.094 113.337 o
8 7 16 2.679 2.500 0.127 62.320 o
8 7 17 1.070 1.102 0.120 70.428 o
8 7 18 1.145 1.062 0.089 125.960 o
8 7 19 0.346 0.397 0.081 154.265 o
8 7 20 1.132 1.133 0.089 125.960 o
8 7 21 0.149 0.272 0.089 127.491 o
8 7 22 0.463 0.606 0.095 112.053 o
8 8 0 3.350 3.266 0.125 65.047 o
8 8 1 8.803 8.640 0.270 13.828 o
8 8 2 1.623 1.654 0.081 154.265 o
8 8 3 4.959 4.842 0.168 35.886 o
8 8 4 0.836 0.798 0.074 182.260 o
8 8 5 2.078 2.268 0.112 80.227 o
8 8 6 1.217 1.203 0.082 148.274 o
8 8 7 1.792 1.844 0.094 114.644 o
8 8 8 0.768 0.783 0.078 167.388 o
8 8 9 0.638 0.726 0.078 165.087 o
8 8 10 0.335 0.419 0.085 140.815 o
8 8 11 3.155 3.063 0.159 39.885 o
8 8 12 0.331 0.608 0.080 156.342 o
8 8 13 0.090 0.240 0.079 162.833 o
8 8 14 0.926 1.047 0.089 127.491 o
8 8 15 1.692 1.806 0.107 87.648 o
8 8 16 0.432 0.543 0.095 112.053 o
8 8 17 0.913 0.886 0.090 124.456 o
8 8 18 0.232 0.271 0.078 167.388 o
8 8 19 0.321 0.492 0.095 112.053 o
8 8 20 0.351 0.253 0.094 113.337 o
8 9 0 0.995 0.900 0.080 156.342 o
8 9 1 0.382 0.336 0.067 225.738 o
8 9 2 0.273 0.449 0.065 237.071 o
8 9 3 2.424 2.432 0.099 102.521 o
8 9 4 1.485 1.412 0.080 158.462 o
8 9 5 0.736 0.819 0.071 202.258 o
8 9 6 1.919 1.789 0.087 133.905 o
8 9 7 2.266 2.403 0.127 62.320 o
8 9 8 0.046 0.181 0.077 169.737 o
8 9 9 1.137 1.263 0.088 129.051 o
8 9 10 1.320 1.416 0.095 112.053 o
8 9 11 1.091 1.161 0.088 130.639 o
8 9 12 0.836 0.804 0.092 118.702 o
8 9 13 0.346 0.361 0.079 160.625 o
8 9 14 0.040 0.135 0.120 69.797 o
8 9 15 1.102 1.220 0.101 98.205 o
8 9 16 0.504 0.593 0.080 156.342 o
8 9 17 0.011 -0.017 0.313 10.282 o
8 9 18 0.146 0.274 0.094 114.644 o
8 9 19 0.421 0.530 0.098 105.948 o
8 10 0 0.002 0.201 0.070 208.578 o
8 10 1 0.262 0.310 0.068 218.629 o
8 10 2 1.114 1.224 0.078 167.388 o
8 10 3 1.129 1.066 0.077 169.737 o
8 10 4 1.131 1.076 0.107 87.648 o
8 10 5 0.737 0.825 0.100 100.328 o
8 10 6 0.385 0.410 0.078 165.087 o
8 10 7 0.653 0.941 0.079 162.833 o
8 10 8 1.912 1.914 0.113 79.461 o
8 10 9 0.822 0.900 0.112 81.004 o
8 10 10 0.244 0.280 0.080 158.462 o
8 10 11 0.298 0.430 0.086 137.295 o
8 10 12 0.393 0.514 0.085 139.038 o
8 10 13 0.448 0.556 0.083 146.355 o
8 10 14 0.491 0.556 0.085 140.815 o
8 10 15 0.187 0.288 0.099 102.521 o
8 10 16 0.013 0.190 0.115 75.792 o
8 10 17 0.348 0.475 0.183 30.026 o
8 11 0 1.280 1.386 0.086 137.295 o
8 11 1 0.012 0.029 0.071 199.205 o
8 11 2 0.206 0.273 0.078 165.087 o
8 11 3 0.030 -0.053 0.289 12.081 o
8 11 4 0.737 0.663 0.082 150.232 o
8 11 5 0.103 0.158 0.073 187.660 o
8 11 6 0.626 0.655 0.081 152.228 o
8 11 7 0.062 0.136 0.080 156.342 o
8 11 8 0.004 0.078 0.081 152.228 o
8 11 9 0.373 0.486 0.086 137.295 o
8 11 10 0.509 0.390 0.089 127.491 o
8 11 11 0.255 0.197 0.086 137.295 o
8 11 12 0.188 0.285 0.089 127.491 o
8 11 13 0.153 0.252 0.097 107.128 o
8 11 14 0.044 0.195 0.091 122.979 o
8 12 0 0.556 0.568 0.094 114.644 o
8 12 1 0.003 -0.033 0.292 11.815 o
8 12 2 0.740 0.842 0.086 135.584 o
8 12 3 0.225 0.409 0.095 110.790 o
8 12 4 0.340 0.505 0.084 144.473 o
8 12 5 0.167 0.290 0.080 158.462 o
8 12 6 0.166 0.390 0.087 132.257 o
8 12 7 0.222 0.254 0.082 148.274 o
8 12 8 0.223 0.335 0.094 114.644 o
8 12 9 0.282 0.344 0.115 76.505 o
8 12 10 0.104 0.182 0.089 127.491 o
9 0 1 2.018 2.343 0.104 93.182 o
9 0 2 19.292 20.015 0.615 2.671 o
9 0 3 21.017 21.004 0.723 1.927 o
9 0 4 6.370 6.728 0.218 21.161 o
9 0 5 1.196 1.169 0.074 182.260 o
9 0 6 0.301 0.463 0.045 503.840 o
9 0 7 14.647 14.275 0.472 4.523 o
9 0 8 25.158 24.929 0.760 1.748 o
9 0 9 9.230 8.839 0.268 14.052 o
9 0 10 1.525 1.544 0.079 162.833 o
9 0 11 0.400 0.462 0.056 320.909 o
9 0 12 8.305 7.687 0.281 12.787 o
9 0 13 9.437 9.289 0.284 12.498 o
9 0 14 1.233 1.228 0.073 187.660 o
9 0 15 7.626 7.474 0.287 12.218 o
9 0 16 2.757 2.690 0.144 48.688 o
9 0 17 2.810 2.660 0.111 82.593 o
9 0 18 1.277 1.275 0.103 95.144 o
9 0 19 3.441 3.345 0.127 62.851 o
9 0 20 7.199 6.595 0.219 21.057 o
9 0 21 0.556 0.528 0.073 187.660 o
9 0 22 0.002 0.026 0.074 182.260 o
9 0 23 0.608 0.679 0.097 107.128 o
9 0 24 0.920 1.029 0.091 122.979 o
9 0 25 0.020 0.092 0.094 114.644 o
9 1 0 0.196 0.251 0.050 401.313 o
9 1 1 1.522 1.493 0.081 154.265 o
9 1 2 16.803 17.119 0.526 3.644 o
9 1 3 1.113 1.098 0.070 205.382 o
9 1 4 1.582 1.584 0.091 122.979 o
9 1 5 11.072 11.199 0.424 5.618 o
9 1 6 4.120 3.956 0.146 47.262 o
9 1 7 6.502 6.451 0.224 20.057 o
9 1 8 2.821 2.882 0.105 92.224 o
9 1 9 5.624 5.602 0.185 29.331 o
9 1 10 10.332 10.204 0.316 10.108 o
9 1 11 14.132 13.823 0.466 4.650 o
9 1 12 3.668 3.640 0.154 42.733 o
9 1 13 3.397 3.386 0.137 53.379 o
9 1 14 0.876 0.876 0.064 245.106 o
9 1 15 5.261 5.175 0.170 34.760 o
9 1 16 7.795 7.431 0.249 16.262 o
9 1 17 3.002 3.176 0.135 55.094 o
9 1 18 2.280 2.251 0.135 55.535 o
9 1 19 0.413 0.482 0.068 215.199 o
9 1 20 1.492 1.333 0.086 135.584 o
9 1 21 1.036 0.976 0.084 142.626 o
9 1 22 1.289 1.105 0.097 107.128 o
9 1 23 0.044 0.136 0.074 184.930 o
9 1 24 0.318 0.310 0.096 109.549 o
9 1 25 0.408 0.451 0.128 61.795 o
9 2 0 24.058 24.794 0.814 1.522 o
9 2 1 5.419 5.617 0.184 29.675 o
9 2 2 42.513 42.268 1.450 0.480 o
9 2 3 0.721 0.744 0.080 156.342 o
9 2 4 14.570 15.029 0.561 3.209 o
9 2 5 3.219 3.207 0.137 53.379 o
9 2 6 22.093 21.887 0.709 2.004 o
9 2 7 4.705 4.691 0.162 38.310 o
9 2 8 0.859 0.915 0.072 196.221 o
9 2 9 9.918 9.604 0.320 9.870 o
9 2 10 4.508 4.674 0.168 35.886 o
9 2 11 3.928 3.728 0.144 48.688 o
9 2 12 5.291 5.155 0.169 35.429 o
9 2 13 6.739 6.396 0.206 23.786 o
9 2 14 14.538 14.574 0.445 5.087 o
9 2 15 0.157 0.327 0.063 257.948 o
9 2 16 1.472 1.480 0.104 93.182 o
9 2 17 0.437 0.526 0.084 142.626 o
9 2 18 4.577 4.344 0.206 23.662 o
9 2 19 0.236 0.275 0.068 215.199 o
9 2 20 0.005 0.024 0.070 208.578 o
9 2 21 0.205 0.220 0.073 187.660 o
9 2 22 0.728 0.715 0.077 169.737 o
9 2 23 0.289 0.198 0.079 162.833 o
9 2 24 0.169 0.180 0.086 135.584 o
9 3 0 31.247 30.510 1.499 0.449 o
9 3 1 4.238 4.074 0.196 26.341 o
9 3 2 8.428 7.978 0.424 5.604 o
9 3 3 4.622 4.140 0.206 23.662 o
9 3 4 36.676 36.771 1.274 0.622 o
9 3 5 0.306 0.392 0.059 292.143 o
9 3 6 3.491 3.470 0.132 57.825 o
9 3 7 1.553 1.681 0.093 117.325 o
9 3 8 12.467 12.388 0.423 5.633 o
9 3 9 2.001 2.050 0.102 97.168 o
9 3 10 10.050 9.736 0.332 9.177 o
9 3 11 0.898 0.949 0.077 172.136 o
9 3 12 2.332 2.136 0.120 69.797 o
9 3 13 0.149 0.210 0.059 286.856 o
9 3 14 5.444 5.376 0.178 31.680 o
9 3 15 0.408 0.415 0.070 205.382 o
9 3 16 2.219 1.963 0.094 114.644 o
9 3 17 2.364 2.320 0.099 103.645 o
9 3 18 0.269 0.415 0.078 165.087 o
9 3 19 0.375 0.426 0.074 182.260 o
9 3 20 0.340 0.392 0.094 113.337 o
9 3 21 0.595 0.603 0.108 86.774 o
9 3 22 0.412 0.471 0.108 85.912 o
9 3 23 0.482 0.452 0.102 97.168 o
9 3 24 0.374 0.435 0.099 103.645 o
9 4 0 9.192 9.150 0.283 12.593 o
9 4 1 4.865 4.998 0.160 39.615 o
9 4 2 3.108 3.150 0.119 71.714 o
9 4 3 8.367 8.431 0.288 12.127 o
9 4 4 14.829 14.727 0.503 3.979 o
9 4 5 3.990 3.956 0.148 45.897 o
9 4 6 8.238 8.102 0.279 12.936 o
9 4 7 2.095 2.367 0.119 71.714 o
9 4 8 21.026 20.888 0.699 2.067 o
9 4 9 2.039 2.115 0.114 77.228 o
9 4 10 1.782 1.908 0.100 100.328 o
9 4 11 0.459 0.363 0.084 144.473 o
9 4 12 5.721 5.781 0.211 22.588 o
9 4 13 0.910 1.015 0.082 150.232 o
9 4 14 0.202 0.265 0.067 225.738 o
9 4 15 5.292 4.735 0.190 28.013 o
9 4 16 0.061 0.125 0.079 160.625 o
9 4 17 0.200 0.253 0.080 156.342 o
9 4 18 0.188 0.271 0.082 150.232 o
9 4 19 3.548 3.331 0.223 20.251 o
9 4 20 0.739 0.701 0.088 130.639 o
9 4 21 1.583 1.600 0.098 104.787 o
9 4 22 0.259 0.330 0.131 58.781 o
9 4 23 0.114 0.134 0.088 129.051 o
9 5 0 0.812 1.021 0.060 281.710 o
9 5 1 8.133 7.908 0.243 17.065 o
9 5 2 10.066 9.948 0.310 10.498 o
9 5 3 1.840 2.157 0.114 77.228 o
9 5 4 1.589 1.826 0.107 87.648 o
9 5 5 4.328 4.254 0.192 27.387 o
9 5 6 7.583 7.736 0.286 12.357 o
9 5 7 1.387 1.423 0.104 93.182 o
9 5 8 0.230 0.288 0.075 177.089 o
9 5 9 0.573 0.761 0.081 154.265 o
9 5 10 3.638 3.454 0.237 18.010 o
9 5 11 1.828 1.652 0.148 45.897 o
9 5 12 0.024 0.027 0.084 142.626 o
9 5 13 2.987 2.819 0.170 34.760 o
9 5 14 1.535 1.381 0.084 144.473 o
9 5 15 0.247 0.351 0.068 218.629 o
9 5 16 0.233 0.240 0.074 184.930 o
9 5 17 4.582 4.421 0.163 38.057 o
9 5 18 1.927 1.920 0.118 72.370 o
9 5 19 1.322 1.216 0.089 125.960 o
9 5 20 0.367 0.462 0.114 77.962 o
9 5 21 0.704 0.610 0.104 93.182 o
9 5 22 0.284 0.178 0.098 105.948 o
9 6 0 6.363 6.426 0.200 25.217 o
9 6 1 0.514 0.609 0.055 333.617 o
9 6 2 1.148 1.199 0.069 211.850 o
9 6 3 1.826 2.007 0.086 135.584 o
9 6 4 1.217 1.271 0.096 109.549 o
9 6 5 0.051 0.170 0.070 205.382 o
9 6 6 3.384 3.317 0.133 56.892 o
9 6 7 0.201 0.284 0.071 202.258 o
9 6 8 3.131 3.134 0.136 54.657 o
9 6 9 1.166 0.983 0.081 152.228 o
9 6 10 6.408 6.487 0.234 18.428 o
9 6 11 0.492 0.606 0.107 88.536 o
9 6 12 4.636 4.505 0.236 18.175 o
9 6 13 2.153 1.821 0.199 25.354 o
9 6 14 2.845 2.629 0.109 84.228 o
9 6 15 2.843 2.938 0.122 67.957 o
9 6 16 1.993 1.814 0.118 73.036 o
9 6 17 0.047 0.197 0.086 135.584 o
9 6 18 0.314 0.322 0.079 162.833 o
9 6 19 1.158 1.046 0.106 90.352 o
9 6 20 0.225 0.081 0.105 91.281 o
9 6 21 1.146 1.027 0.128 61.277 o
9 7 0 0.805 0.787 0.070 208.578 o
9 7 1 1.116 1.093 0.091 121.528 o
9 7 2 1.869 1.874 0.099 102.521 o
9 7 3 0.892 0.913 0.065 237.071 o
9 7 4 3.819 3.753 0.132 57.825 o
9 7 5 1.830 1.796 0.094 113.337 o
9 7 6 1.777 1.612 0.084 142.626 o
9 7 7 0.037 0.036 0.066 233.200 o
9 7 8 9.076 8.975 0.259 15.002 o
9 7 9 0.908 0.941 0.100 100.328 o
9 7 10 3.579 3.708 0.167 36.118 o
9 7 11 1.699 1.692 0.107 88.536 o
9 7 12 4.819 4.406 0.186 29.162 o
9 7 13 0.901 0.847 0.087 133.905 o
9 7 14 1.990 2.172 0.107 88.536 o
9 7 15 0.578 0.527 0.088 129.051 o
9 7 16 0.214 0.123 0.078 165.087 o
9 7 17 1.091 1.173 0.111 82.593 o
9 7 18 0.197 0.333 0.100 100.328 o
9 7 19 0.130 0.108 0.113 78.706 o
9 7 20 0.192 0.219 0.095 112.053 o
9 8 0 2.061 2.104 0.093 115.973 o
9 8 1 1.368 1.214 0.084 142.626 o
9 8 2 1.141 1.185 0.074 182.260 o
9 8 3 3.306 3.239 0.142 49.801 o
9 8 4 2.156 2.055 0.094 113.337 o
9 8 5 0.569 0.557 0.062 262.454 o
9 8 6 3.623 3.483 0.147 46.915 o
9 8 7 3.888 3.922 0.146 47.612 o
9 8 8 0.471 0.493 0.070 208.578 o
9 8 9 2.143 2.358 0.113 78.706 o
9 8 10 1.166 1.248 0.093 117.325 o
9 8 11 0.805 0.858 0.084 144.473 o
9 8 12 0.456 0.455 0.087 133.905 o
9 8 13 1.459 1.459 0.099 103.645 o
9 8 14 0.102 0.167 0.084 142.626 o
9 8 15 0.333 0.246 0.095 110.790 o
9 8 16 0.324 0.423 0.100 100.328 o
9 8 17 0.027 -0.065 0.314 10.247 o
9 8 18 0.426 0.374 0.096 109.549 o
9 8 19 0.201 0.297 0.101 99.258 o
9 9 0 0.151 0.194 0.063 253.558 o
9 9 1 1.504 1.357 0.077 172.136 o
9 9 2 2.056 1.951 0.103 94.156 o
9 9 3 0.542 0.561 0.066 229.424 o
9 9 4 0.270 0.358 0.106 90.352 o
9 9 5 2.928 2.774 0.119 71.066 o
9 9 6 2.075 1.873 0.119 71.714 o
9 9 7 2.569 2.246 0.115 76.505 o
9 9 8 0.026 0.077 0.080 156.342 o
9 9 9 1.265 1.494 0.107 87.648 o
9 9 10 0.068 0.138 0.081 154.265 o
9 9 11 2.481 2.532 0.135 55.535 o
9 9 12 0.432 0.354 0.095 112.053 o
9 9 13 0.076 0.298 0.101 98.205 o
9 9 14 0.238 0.147 0.105 92.224 o
9 9 15 0.285 0.297 0.105 91.281 o
9 9 16 0.590 0.680 0.094 113.337 o
9 9 17 0.254 0.420 0.107 88.536 o
9 10 0 0.032 0.037 0.067 222.141 o
9 10 1 0.583 0.636 0.072 196.221 o
9 10 2 0.480 0.539 0.089 127.491 o
9 10 3 1.296 1.489 0.089 127.491 o
9 10 4 0.136 0.218 0.078 167.388 o
9 10 5 0.664 0.551 0.076 174.586 o
9 10 6 0.060 0.219 0.075 179.647 o
9 10 7 0.565 0.772 0.096 109.549 o
9 10 8 0.170 0.161 0.079 162.833 o
9 10 9 1.377 1.233 0.147 46.915 o
9 10 10 0.019 0.029 0.103 94.156 o
9 10 11 0.044 0.100 0.103 94.156 o
9 10 12 0.295 0.180 0.101 98.205 o
9 10 13 0.514 0.620 0.127 62.851 o
9 10 14 0.077 0.146 0.130 59.268 o
9 11 0 0.542 0.490 0.080 158.462 o
9 11 1 0.514 0.566 0.077 169.737 o
9 11 2 0.405 0.717 0.084 144.473 o
9 11 3 0.067 0.071 0.080 156.342 o
9 11 4 0.080 0.202 0.087 132.257 o
9 11 5 0.402 0.376 0.080 156.342 o
9 11 6 0.500 0.543 0.085 139.038 o
9 11 7 0.304 0.356 0.085 139.038 o
9 11 8 0.072 0.233 0.091 122.979 o
9 11 9 0.061 0.243 0.109 84.228 o
9 11 10 0.399 0.533 0.101 98.205 o
9 11 11 0.325 0.259 0.107 88.536 o
9 12 0 0.317 0.273 0.140 51.345 o
9 12 1 0.046 0.167 0.090 124.456 o
9 12 2 0.082 0.144 0.119 71.714 o
9 12 3 0.161 0.206 0.091 121.528 o
9 12 4 0.208 0.183 0.086 135.584 o
9 12 5 0.067 0.071 0.083 146.355 o
10 0 0 0.982 1.137 0.154 42.434 o
10 0 1 0.224 0.167 0.065 241.038 o
10 0 2 6.381 6.519 0.230 19.126 o
10 0 3 18.131 18.323 0.577 3.026 o
10 0 4 9.762 9.857 0.312 10.354 o
10 0 5 9.086 9.333 0.304 10.912 o
10 0 6 8.226 8.265 0.265 14.398 o
10 0 7 13.174 12.572 0.582 2.976 o
10 0 8 21.664 20.678 0.615 2.671 o
10 0 9 2.184 2.142 0.084 142.626 o
10 0 10 1.885 1.992 0.080 156.342 o
10 0 11 2.411 2.298 0.094 113.337 o
10 0 12 5.189 5.149 0.170 34.760 o
10 0 13 1.199 1.092 0.072 193.303 o
10 0 14 10.458 10.056 0.307 10.721 o
10 0 15 0.478 0.529 0.068 218.629 o
10 0 16 0.000 0.005 0.067 225.738 o
10 0 17 0.648 0.615 0.080 158.462 o
10 0 18 5.366 5.118 0.200 25.217 o
10 0 19 0.044 0.208 0.085 139.038 o
10 0 20 0.228 0.272 0.086 135.584 o
10 0 21 0.121 0.143 0.072 193.303 o
10 0 22 1.924 1.716 0.102 96.148 o
10 0 23 0.008 0.218 0.098 105.948 o
10 1 0 0.404 0.496 0.068 215.199 o
10 1 1 9.384 9.385 0.321 9.771 o
10 1 2 0.494 0.504 0.071 202.258 o
10 1 3 7.265 7.121 0.232 18.685 o
10 1 4 7.796 7.940 0.282 12.690 o
10 1 5 9.817 9.786 0.355 8.017 o
10 1 6 13.670 12.967 0.480 4.372 o
10 1 7 11.620 11.759 0.409 6.025 o
10 1 8 5.557 5.336 0.206 23.786 o
10 1 9 1.827 1.843 0.097 107.128 o
10 1 10 16.118 15.733 0.478 4.422 o
10 1 11 4.641 4.647 0.150 44.590 o
10 1 12 10.361 10.096 0.309 10.535 o
10 1 13 0.081 0.123 0.063 253.558 o
10 1 14 2.052 2.014 0.086 135.584 o
10 1 15 2.112 1.992 0.091 122.979 o
10 1 16 5.626 5.224 0.173 33.685 o
10 1 17 0.116 0.104 0.069 211.850 o
10 1 18 0.042 0.098 0.066 229.424 o
10 1 19 0.250 0.268 0.067 222.141 o
10 1 20 2.006 1.728 0.129 60.765 o
10 1 21 0.147 0.244 0.072 196.221 o
10 1 22 0.261 0.316 0.087 132.257 o
10 1 23 0.097 0.206 0.087 133.905 o
10 2 0 15.961 16.529 0.515 3.798 o
10 2 1 20.965 21.414 0.670 2.247 o
10 2 2 1.654 1.706 0.077 172.136 o
10 2 3 2.106 2.191 0.112 81.004 o
10 2 4 1.026 1.206 0.116 74.394 o
10 2 5 17.304 17.368 0.639 2.472 o
10 2 6 5.515 5.575 0.261 14.817 o
10 2 7 6.923 6.406 0.220 20.851 o
10 2 8 7.838 7.911 0.271 13.773 o
10 2 9 5.839 5.932 0.217 21.478 o
10 2 10 6.058 6.023 0.202 24.682 o
10 2 11 9.055 8.788 0.303 10.989 o
10 2 12 7.140 7.084 0.251 16.052 o
10 2 13 1.898 1.896 0.094 114.644 o
10 2 14 2.804 2.654 0.106 90.352 o
10 2 15 0.802 0.850 0.091 122.979 o
10 2 16 1.272 1.250 0.101 99.258 o
10 2 17 0.838 0.995 0.079 162.833 o
10 2 18 0.751 0.782 0.082 148.274 o
10 2 19 0.640 0.622 0.087 133.905 o
10 2 20 0.217 0.140 0.071 199.205 o
10 2 21 0.070 0.068 0.085 140.815 o
10 2 22 0.360 0.526 0.095 112.053 o
10 2 23 0.507 0.513 0.111 81.793 o
10 3 0 0.000 0.072 0.058 303.166 o
10 3 1 15.589 15.484 0.685 2.152 o
10 3 2 11.177 11.314 0.409 6.025 o
10 3 3 24.264 23.915 0.869 1.334 o
10 3 4 5.172 5.355 0.289 12.037 o
10 3 5 1.890 1.814 0.105 92.224 o
10 3 6 5.685 5.552 0.223 20.349 o
10 3 7 4.586 4.837 0.171 34.324 o
10 3 8 2.735 2.983 0.124 65.614 o
10 3 9 8.104 7.888 0.306 10.758 o
10 3 10 1.604 1.741 0.092 120.102 o
10 3 11 0.343 0.466 0.072 196.221 o
10 3 12 0.008 0.085 0.073 187.660 o
10 3 13 3.511 3.455 0.141 50.953 o
10 3 14 1.715 1.544 0.095 112.053 o
10 3 15 0.146 0.335 0.067 225.738 o
10 3 16 0.370 0.462 0.067 222.141 o
10 3 17 1.110 1.051 0.081 152.228 o
10 3 18 0.577 0.617 0.085 140.815 o
10 3 19 0.462 0.627 0.078 167.388 o
10 3 20 0.112 0.102 0.095 110.790 o
10 3 21 0.920 0.861 0.102 97.168 o
10 3 22 0.048 0.095 0.096 108.328 o
10 4 0 1.920 2.041 0.081 152.228 o
10 4 1 20.667 19.869 0.644 2.431 o
10 4 2 6.366 6.469 0.239 17.686 o
10 4 3 1.376 1.275 0.072 193.303 o
10 4 4 8.274 8.122 0.275 13.345 o
10 4 5 12.834 12.731 0.411 5.962 o
10 4 6 7.687 7.877 0.267 14.166 o
10 4 7 2.434 2.588 0.116 75.088 o
10 4 8 3.385 3.446 0.130 59.268 o
10 4 9 0.595 0.722 0.084 142.626 o
10 4 10 2.255 2.338 0.114 77.962 o
10 4 11 1.409 1.341 0.098 105.948 o
10 4 12 0.006 0.086 0.077 169.737 o
10 4 13 1.337 1.251 0.093 115.973 o
10 4 14 0.258 0.292 0.086 135.584 o
10 4 15 0.723 0.732 0.091 121.528 o
10 4 16 0.055 0.097 0.074 184.930 o
10 4 17 1.072 1.156 0.088 129.051 o
10 4 18 0.122 0.183 0.086 137.295 o
10 4 19 0.963 1.096 0.147 46.915 o
10 4 20 0.114 0.283 0.127 62.851 o
10 4 21 0.228 0.350 0.091 121.528 o
10 5 0 18.017 17.898 0.529 3.607 o
10 5 1 0.900 1.006 0.062 262.454 o
10 5 2 1.518 1.593 0.080 156.342 o
10 5 3 9.266 9.452 0.316 10.108 o
10 5 4 7.053 7.163 0.244 16.914 o
10 5 5 5.662 5.495 0.236 18.093 o
10 5 6 2.007 2.020 0.123 66.770 o
10 5 7 1.995 2.190 0.108 86.774 o
10 5 8 1.481 1.630 0.089 125.960 o
10 5 9 4.933 4.901 0.182 30.382 o
10 5 10 0.198 0.139 0.101 98.205 o
10 5 11 0.193 0.222 0.077 172.136 o
10 5 12 0.620 0.769 0.081 152.228 o
10 5 13 0.201 0.215 0.100 100.328 o
10 5 14 0.433 0.534 0.107 87.648 o
10 5 15 0.186 0.384 0.085 139.038 o
10 5 16 0.009 0.077 0.093 117.325 o
10 5 17 0.155 0.239 0.123 66.188 o
10 5 18 0.993 0.998 0.104 93.182 o
10 5 19 0.003 -0.022 0.304 10.912 o
10 5 20 0.108 0.105 0.104 93.182 o
10 5 21 0.135 0.425 0.102 97.168 o
10 6 0 1.330 1.495 0.072 196.221 o
10 6 1 6.915 6.439 0.202 24.814 o
10 6 2 7.173 7.151 0.255 15.514 o
10 6 3 1.243 1.428 0.101 98.205 o
10 6 4 1.406 1.549 0.089 125.960 o
10 6 5 8.225 7.932 0.311 10.425 o
10 6 6 0.147 0.218 0.076 174.586 o
10 6 7 4.609 4.290 0.169 35.204 o
10 6 8 0.190 0.278 0.073 187.660 o
10 6 9 1.102 1.169 0.085 139.038 o
10 6 10 0.849 0.819 0.081 152.228 o
10 6 11 0.784 0.764 0.094 113.337 o
10 6 12 0.663 0.697 0.095 112.053 o
10 6 13 0.473 0.610 0.121 68.562 o
10 6 14 0.182 0.358 0.087 133.905 o
10 6 15 0.094 0.073 0.086 137.295 o
10 6 16 1.013 0.977 0.139 52.145 o
10 6 17 0.737 0.723 0.120 69.797 o
10 6 18 0.088 0.099 0.103 94.156 o
10 6 19 0.085 0.213 0.112 81.004 o
10 7 0 0.200 0.300 0.060 276.702 o
10 7 1 3.790 3.661 0.139 52.551 o
10 7 2 0.857 1.023 0.065 241.038 o
10 7 3 9.314 8.644 0.255 15.514 o
10 7 4 0.166 0.209 0.063 257.948 o
10 7 5 0.079 0.230 0.073 187.660 o
10 7 6 1.347 1.241 0.089 127.491 o
10 7 7 2.418 2.472 0.149 45.236 o
10 7 8 0.583 0.630 0.084 142.626 o
10 7 9 0.708 0.700 0.094 114.644 o
10 7 10 0.012 0.180 0.086 135.584 o
10 7 11 0.166 0.124 0.086 135.584 o
10 7 12 0.621 0.685 0.111 81.793 o
10 7 13 0.688 0.716 0.099 102.521 o
10 7 14 0.453 0.640 0.095 112.053 o
10 7 15 0.762 0.819 0.121 68.562 o
10 7 16 0.148 0.229 0.094 114.644 o
10 7 17 0.532 0.615 0.116 74.394 o
10 7 18 0.288 0.486 0.105 92.224 o
10 8 0 0.001 0.141 0.071 202.258 o
10 8 1 4.562 4.342 0.155 42.139 o
10 8 2 0.545 0.514 0.079 160.625 o
10 8 3 1.248 1.224 0.074 182.260 o
10 8 4 1.057 1.072 0.095 112.053 o
10 8 5 2.109 2.239 0.118 73.036 o
10 8 6 1.007 1.030 0.085 139.038 o
10 8 7 0.274 0.375 0.084 142.626 o
10 8 8 1.148 1.083 0.093 117.325 o
10 8 9 0.047 0.056 0.096 109.549 o
10 8 10 1.568 1.429 0.107 87.648 o
10 8 11 1.213 1.491 0.134 56.435 o
10 8 12 0.481 0.534 0.093 115.973 o
10 8 13 0.029 0.186 0.093 117.325 o
10 8 14 0.604 0.768 0.156 41.272 o
10 8 15 0.600 0.519 0.179 31.490 o
10 8 16 0.515 0.332 0.100 100.328 o
10 9 0 0.003 0.100 0.065 241.038 o
10 9 1 1.304 1.306 0.079 162.833 o
10 9 2 0.271 0.386 0.066 229.424 o
10 9 3 1.141 1.203 0.091 121.528 o
10 9 4 0.110 0.195 0.075 177.089 o
10 9 5 0.204 0.263 0.072 193.303 o
10 9 6 1.274 1.276 0.123 66.188 o
10 9 7 0.235 0.327 0.115 75.792 o
10 9 8 0.903 0.876 0.120 70.428 o
10 9 9 0.508 0.596 0.089 127.491 o
10 9 10 0.910 0.791 0.138 52.962 o
10 9 11 0.151 0.204 0.129 60.765 o
10 9 12 1.101 0.946 0.129 60.260 o
10 9 13 0.218 0.267 0.094 114.644 o
10 9 14 0.113 0.198 0.105 92.224 o
10 10 0 0.568 0.637 0.089 125.960 o
10 10 1 0.120 0.100 0.072 196.221 o
10 10 2 0.325 0.226 0.082 148.274 o
10 10 3 0.759 0.795 0.080 158.462 o
10 10 4 0.817 1.016 0.116 74.394 o
10 10 5 0.127 0.343 0.086 135.584 o
10 10 6 0.010 0.088 0.146 47.612 o
10 10 7 0.554 0.631 0.092 120.102 o
10 10 8 0.621 0.592 0.091 121.528 o
10 10 9 0.150 0.215 0.092 118.702 o
10 10 10 0.318 0.259 0.125 64.487 o
10 10 11 0.185 0.062 0.102 96.148 o
10 11 0 0.226 0.309 0.107 88.536 o
10 11 1 0.125 0.226 0.099 103.645 o
10 11 2 0.103 0.373 0.099 102.521 o
10 11 3 0.123 0.288 0.101 99.258 o
10 11 4 0.232 0.100 0.089 127.491 o
10 11 5 0.263 0.241 0.138 52.962 o
10 11 6 0.178 0.320 0.093 115.973 o
11 0 1 0.339 0.402 0.082 148.274 o
11 0 2 0.292 0.344 0.066 229.424 o
11 0 3 2.554 2.647 0.114 77.962 o
11 0 4 0.222 0.270 0.056 320.909 o
11 0 5 0.726 0.903 0.074 182.260 o
11 0 6 2.499 2.593 0.101 99.258 o
11 0 7 0.683 0.773 0.065 237.071 o
11 0 8 2.683 2.513 0.134 56.435 o
11 0 9 1.811 1.821 0.078 165.087 o
11 0 10 0.142 0.238 0.065 241.038 o
11 0 11 1.854 1.810 0.082 150.232 o
11 0 12 5.768 5.295 0.189 28.334 o
11 0 13 0.025 0.112 0.067 225.738 o
11 0 14 1.368 1.244 0.098 105.948 o
11 0 15 1.957 2.012 0.128 61.795 o
11 0 16 0.442 0.536 0.072 193.303 o
11 0 17 0.461 0.551 0.078 167.388 o
11 0 18 0.364 0.338 0.072 193.303 o
11 0 19 0.013 0.212 0.074 182.260 o
11 0 20 0.166 0.245 0.102 96.148 o
11 0 21 0.025 0.177 0.098 105.948 o
11 1 0 0.250 0.259 0.092 118.702 o
11 1 1 2.404 2.400 0.142 49.801 o
11 1 2 8.642 9.022 0.314 10.247 o
11 1 3 3.277 3.150 0.132 58.300 o
11 1 4 2.861 2.748 0.107 87.648 o
11 1 5 1.090 1.143 0.069 211.850 o
11 1 6 1.145 1.285 0.128 61.277 o
11 1 7 1.232 1.241 0.125 65.047 o
11 1 8 3.480 3.191 0.133 57.356 o
11 1 9 3.220 3.031 0.117 73.710 o
11 1 10 4.924 4.469 0.156 41.272 o
11 1 11 0.373 0.384 0.088 129.051 o
11 1 12 0.163 0.189 0.069 211.850 o
11 1 13 2.311 2.228 0.106 89.437 o
11 1 14 1.728 1.552 0.084 142.626 o
11 1 15 1.005 0.860 0.078 167.388 o
11 1 16 2.033 1.824 0.089 127.491 o
11 1 17 0.162 0.289 0.071 199.205 o
11 1 18 0.083 0.149 0.075 179.647 o
11 1 19 0.869 0.892 0.084 144.473 o
11 1 20 0.950 0.941 0.116 74.394 o
11 1 21 0.740 0.560 0.102 96.148 o
11 2 0 3.175 3.220 0.133 57.356 o
11 2 1 3.006 3.088 0.139 52.551 o
11 2 2 1.790 1.851 0.085 140.815 o
11 2 3 1.631 1.487 0.089 127.491 o
11 2 4 0.737 0.669 0.067 225.738 o
11 2 5 0.451 0.517 0.077 169.737 o
11 2 6 4.594 4.384 0.239 17.686 o
11 2 7 0.239 0.289 0.071 199.205 o
11 2 8 2.078 2.144 0.137 53.800 o
11 2 9 0.091 0.098 0.065 241.038 o
11 2 10 0.939 1.153 0.078 165.087 o
11 2 11 0.754 0.758 0.073 190.450 o
11 2 12 1.990 2.049 0.105 91.281 o
11 2 13 1.031 0.892 0.099 103.645 o
11 2 14 0.839 0.898 0.093 115.973 o
11 2 15 0.165 0.192 0.068 215.199 o
11 2 16 0.623 0.606 0.109 84.228 o
11 2 17 2.887 2.855 0.166 36.589 o
11 2 18 1.240 1.185 0.112 81.004 o
11 2 19 1.117 1.157 0.107 87.648 o
11 2 20 0.293 0.473 0.098 105.948 o
11 3 0 1.770 1.996 0.088 129.051 o
11 3 1 2.920 3.085 0.117 73.710 o
11 3 2 3.499 3.755 0.135 55.535 o
11 3 3 5.310 5.092 0.218 21.266 o
11 3 4 4.402 4.612 0.182 30.562 o
11 3 5 3.323 3.245 0.179 31.490 o
11 3 6 2.808 2.940 0.165 37.069 o
11 3 7 3.269 3.336 0.150 44.590 o
11 3 8 1.303 1.334 0.080 156.342 o
11 3 9 1.550 1.502 0.081 152.228 o
11 3 10 1.865 1.950 0.112 81.004 o
11 3 11 1.579 1.496 0.123 66.188 o
11 3 12 1.483 1.204 0.128 61.277 o
11 3 13 0.950 0.847 0.107 87.648 o
11 3 14 2.305 2.197 0.113 78.706 o
11 3 15 4.381 4.179 0.173 33.685 o
11 3 16 1.393 1.510 0.115 76.505 o
11 3 17 0.907 0.995 0.092 120.102 o
11 3 18 0.966 0.894 0.122 67.359 o
11 3 19 1.897 1.892 0.109 85.064 o
11 3 20 0.065 0.276 0.096 108.328 o
11 4 0 8.160 7.427 0.405 6.154 o
11 4 1 0.385 0.370 0.086 137.295 o
11 4 2 0.985 0.989 0.086 135.584 o
11 4 3 3.326 3.558 0.188 28.661 o
11 4 4 8.506 8.076 0.355 8.017 o
11 4 5 1.480 1.177 0.143 49.426 o
11 4 6 0.386 0.486 0.065 241.038 o
11 4 7 1.341 1.361 0.080 158.462 o
11 4 8 4.569 4.546 0.174 33.476 o
11 4 9 0.747 0.792 0.074 184.930 o
11 4 10 4.766 4.739 0.181 30.928 o
11 4 11 1.044 1.101 0.100 101.416 o
11 4 12 0.781 0.876 0.094 113.337 o
11 4 13 2.500 2.250 0.120 69.797 o
11 4 14 4.993 4.717 0.195 26.634 o
11 4 15 0.823 0.670 0.097 107.128 o
11 4 16 0.823 0.750 0.094 114.644 o
11 4 17 1.225 1.341 0.112 80.227 o
11 4 18 0.697 0.693 0.093 117.325 o
11 4 19 0.571 0.706 0.098 104.787 o
11 5 0 0.138 0.231 0.055 333.617 o
11 5 1 5.714 5.868 0.205 24.037 o
11 5 2 3.135 2.806 0.113 78.706 o
11 5 3 3.013 3.046 0.155 42.139 o
11 5 4 1.676 1.536 0.095 112.053 o
11 5 5 0.435 0.612 0.074 182.260 o
11 5 6 7.140 6.751 0.239 17.607 o
11 5 7 0.417 0.454 0.070 208.578 o
11 5 8 8.324 7.899 0.284 12.498 o
11 5 9 1.271 1.224 0.102 96.148 o
11 5 10 3.514 3.552 0.173 33.685 o
11 5 11 0.088 0.156 0.095 110.790 o
11 5 12 7.683 7.655 0.294 11.686 o
11 5 13 0.816 0.961 0.109 84.228 o
11 5 14 0.050 0.254 0.087 133.905 o
11 5 15 0.144 0.330 0.090 124.456 o
11 5 16 1.104 1.116 0.102 96.148 o
11 5 17 1.007 0.987 0.099 103.645 o
11 5 18 0.269 0.441 0.095 110.790 o
11 6 0 0.645 0.661 0.062 262.454 o
11 6 1 5.498 5.191 0.180 31.301 o
11 6 2 0.241 0.378 0.077 169.737 o
11 6 3 1.377 1.419 0.098 105.948 o
11 6 4 2.452 2.390 0.169 35.429 o
11 6 5 4.663 4.390 0.181 30.928 o
11 6 6 2.864 2.720 0.195 26.634 o
11 6 7 0.423 0.479 0.086 137.295 o
11 6 8 3.000 3.254 0.153 43.339 o
11 6 9 1.911 1.901 0.121 69.175 o
11 6 10 4.404 4.629 0.275 13.345 o
11 6 11 0.629 0.568 0.092 120.102 o
11 6 12 0.701 0.766 0.092 120.102 o
11 6 13 0.431 0.527 0.090 124.456 o
11 6 14 0.855 0.883 0.092 120.102 o
11 6 15 0.742 0.645 0.093 115.973 o
11 6 16 0.813 0.772 0.127 62.320 o
11 6 17 0.229 0.232 0.099 102.521 o
11 7 0 0.097 0.171 0.065 237.071 o
11 7 1 1.277 1.192 0.076 174.586 o
11 7 2 0.799 0.680 0.068 218.629 o
11 7 3 5.270 4.953 0.211 22.588 o
11 7 4 0.075 0.202 0.087 132.257 o
11 7 5 0.053 0.156 0.080 158.462 o
11 7 6 0.486 0.550 0.082 150.232 o
11 7 7 3.811 3.684 0.146 47.262 o
11 7 8 0.637 0.631 0.105 92.224 o
11 7 9 0.306 0.614 0.086 135.584 o
11 7 10 0.519 0.490 0.118 73.036 o
11 7 11 1.366 1.478 0.118 73.036 o
11 7 12 0.351 0.495 0.091 121.528 o
11 7 13 0.422 0.499 0.092 120.102 o
11 7 14 1.750 1.605 0.155 42.139 o
11 7 15 0.512 0.534 0.094 113.337 o
11 8 0 0.055 0.128 0.074 184.930 o
11 8 1 1.609 1.881 0.091 121.528 o
11 8 2 0.110 0.135 0.066 233.200 o
11 8 3 0.088 0.275 0.093 115.973 o
11 8 4 0.115 0.278 0.083 146.355 o
11 8 5 1.613 1.579 0.137 53.379 o
11 8 6 0.591 0.698 0.094 113.337 o
11 8 7 0.134 0.160 0.098 104.787 o
11 8 8 0.451 0.389 0.109 85.064 o
11 8 9 0.348 0.444 0.098 104.787 o
11 8 10 0.560 0.563 0.101 99.258 o
11 8 11 0.094 0.137 0.089 127.491 o
11 8 12 1.627 1.490 0.103 94.156 o
11 8 13 0.454 0.470 0.089 125.960 o
11 9 0 0.015 0.018 0.081 154.265 o
11 9 1 0.122 0.217 0.094 114.644 o
11 9 2 0.194 0.416 0.094 113.337 o
11 9 3 0.159 0.409 0.080 156.342 o
11 9 4 0.144 0.280 0.112 81.004 o
11 9 5 0.245 0.339 0.092 118.702 o
11 9 6 0.263 0.310 0.088 130.639 o
11 9 7 0.287 0.365 0.089 125.960 o
11 9 8 0.530 0.537 0.092 120.102 o
11 9 9 0.204 0.294 0.098 104.787 o
11 9 10 0.412 0.465 0.092 118.702 o
11 10 0 0.008 0.244 0.178 31.680 o
11 10 1 0.022 0.125 0.109 84.228 o
11 10 2 0.107 0.099 0.101 98.205 o
11 10 3 0.167 0.266 0.117 73.710 o
11 10 4 0.075 0.045 0.097 107.128 o
11 10 5 0.295 0.190 0.106 90.352 o
12 0 0 0.055 0.050 0.096 108.328 o
12 0 1 8.723 8.714 0.299 11.268 o
12 0 2 3.319 3.322 0.141 50.953 o
12 0 3 33.512 34.371 1.158 0.752 o
12 0 4 0.075 0.224 0.057 308.914 o
12 0 5 2.044 2.139 0.096 108.328 o
12 0 6 7.017 6.830 0.227 19.491 o
12 0 7 17.099 17.048 0.543 3.423 o
12 0 8 0.001 -0.006 0.261 14.756 o
12 0 9 5.612 5.261 0.232 18.772 o
12 0 10 0.374 0.343 0.078 167.388 o
12 0 11 3.201 3.014 0.112 80.227 o
12 0 12 1.491 1.544 0.096 109.549 o
12 0 13 0.958 1.094 0.089 127.491 o
12 0 14 0.070 0.107 0.083 146.355 o
12 0 15 0.933 1.147 0.091 122.979 o
12 0 16 1.153 0.962 0.093 115.973 o
12 0 17 0.183 0.297 0.099 102.521 o
12 0 18 0.018 -0.066 0.321 9.804 o
12 1 0 3.423 3.646 0.153 43.034 o
12 1 1 20.700 20.296 0.671 2.239 o
12 1 2 1.477 1.537 0.087 133.905 o
12 1 3 0.688 0.928 0.077 169.737 o
12 1 4 5.837 5.783 0.252 15.847 o
12 1 5 18.997 19.083 0.776 1.676 o
12 1 6 0.110 0.290 0.078 165.087 o
12 1 7 4.966 4.800 0.205 23.911 o
12 1 8 2.607 2.210 0.230 19.126 o
12 1 9 3.016 2.737 0.219 20.954 o
12 1 10 0.754 0.791 0.121 68.562 o
12 1 11 3.063 2.887 0.137 53.379 o
12 1 12 0.623 0.761 0.087 133.905 o
12 1 13 0.182 0.124 0.084 144.473 o
12 1 14 2.132 2.041 0.148 46.233 o
12 1 15 0.306 0.270 0.088 129.051 o
12 1 16 0.038 0.054 0.087 133.905 o
12 1 17 0.114 0.274 0.089 125.960 o
12 1 18 0.928 0.956 0.105 91.281 o
12 2 0 7.067 6.516 0.455 4.861 o
12 2 1 5.066 5.215 0.215 21.802 o
12 2 2 2.051 2.058 0.111 82.593 o
12 2 3 10.219 10.048 0.399 6.338 o
12 2 4 1.063 1.059 0.086 135.584 o
12 2 5 0.528 0.398 0.059 286.856 o
12 2 6 5.817 6.034 0.249 16.262 o
12 2 7 1.252 1.169 0.106 90.352 o
12 2 8 1.760 1.744 0.166 36.589 o
12 2 9 3.475 3.454 0.177 32.263 o
12 2 10 5.355 4.960 0.208 23.296 o
12 2 11 0.855 0.839 0.088 130.639 o
12 2 12 3.813 3.883 0.197 26.053 o
12 2 13 0.748 0.857 0.087 133.905 o
12 2 14 0.470 0.706 0.097 107.128 o
12 2 15 0.702 0.900 0.185 29.503 o
12 2 16 2.313 2.014 0.182 30.382 o
12 2 17 0.125 0.247 0.107 88.536 o
12 2 18 0.556 0.639 0.126 63.935 o
12 3 0 0.432 0.476 0.070 208.578 o
12 3 1 1.837 1.862 0.096 109.549 o
12 3 2 0.630 0.659 0.088 130.639 o
12 3 3 0.228 0.312 0.088 130.639 o
12 3 4 0.395 0.420 0.078 167.388 o
12 3 5 1.949 1.997 0.129 60.260 o
12 3 6 0.351 0.344 0.093 115.973 o
12 3 7 2.084 2.017 0.127 62.320 o
12 3 8 4.753 5.000 0.219 21.057 o
12 3 9 1.116 1.224 0.136 54.657 o
12 3 10 1.891 1.839 0.107 87.648 o
12 3 11 1.219 1.245 0.100 101.416 o
12 3 12 2.192 2.088 0.171 34.324 o
12 3 13 2.698 2.769 0.215 21.912 o
12 3 14 1.903 1.889 0.206 23.662 o
12 3 15 0.029 0.119 0.140 51.345 o
12 3 16 0.047 0.040 0.153 43.339 o
12 3 17 0.806 0.872 0.154 42.733 o
12 4 0 1.828 1.935 0.164 37.558 o
12 4 1 0.483 0.618 0.111 81.793 o
12 4 2 1.708 1.746 0.110 83.404 o
12 4 3 0.552 0.413 0.100 100.328 o
12 4 4 3.081 3.041 0.229 19.307 o
12 4 5 2.181 2.193 0.118 73.036 o
12 4 6 1.279 1.254 0.100 100.328 o
12 4 7 0.449 0.557 0.099 102.521 o
12 4 8 0.350 0.369 0.079 162.833 o
12 4 9 1.723 1.443 0.093 117.325 o
12 4 10 1.412 1.339 0.108 85.912 o
12 4 11 0.677 0.785 0.093 117.325 o
12 4 12 0.863 0.826 0.111 82.593 o
12 4 13 0.179 0.092 0.103 95.144 o
12 4 14 0.094 0.149 0.103 94.156 o
12 4 15 0.821 0.816 0.130 59.761 o
12 4 16 0.587 0.734 0.150 44.912 o
12 5 0 2.073 1.998 0.109 85.064 o
12 5 1 0.382 0.371 0.073 187.660 o
12 5 2 2.421 2.157 0.242 17.217 o
12 5 3 0.597 0.881 0.116 75.088 o
12 5 4 0.438 0.486 0.073 190.450 o
12 5 5 0.450 0.470 0.082 150.232 o
12 5 6 3.336 2.967 0.180 31.114 o
12 5 7 0.850 0.915 0.088 129.051 o
12 5 8 0.488 0.527 0.087 132.257 o
12 5 9 0.112 0.240 0.087 133.905 o
12 5 10 0.390 0.545 0.120 69.797 o
12 5 11 0.610 0.479 0.126 63.389 o
12 5 12 0.089 0.299 0.099 102.521 o
12 5 13 0.075 0.107 0.151 44.272 o
12 5 14 0.373 0.287 0.127 62.320 o
12 5 15 0.045 0.224 0.140 51.345 o
12 6 0 0.113 0.180 0.130 59.268 o
12 6 1 0.685 0.837 0.137 53.379 o
12 6 2 1.223 1.435 0.116 75.088 o
12 6 3 0.340 0.297 0.121 68.562 o
12 6 4 1.607 1.620 0.111 81.793 o
12 6 5 0.196 0.306 0.092 118.702 o
12 6 6 0.869 0.991 0.096 108.328 o
12 6 7 0.356 0.333 0.107 88.536 o
12 6 8 0.335 0.440 0.111 82.593 o
12 6 9 0.402 0.465 0.121 68.562 o
12 6 10 0.836 0.912 0.128 61.795 o
12 6 11 0.038 0.368 0.106 89.437 o
12 6 12 0.270 0.336 0.123 66.770 o
12 6 13 0.041 0.203 0.108 85.912 o
12 6 14 0.101 -0.050 0.310 10.462 o
12 7 0 0.676 0.819 0.086 137.295 o
12 7 1 0.044 0.116 0.103 94.156 o
12 7 2 0.232 0.393 0.120 70.428 o
12 7 3 0.337 0.528 0.121 68.562 o
12 7 4 0.855 0.993 0.127 62.320 o
12 7 5 0.228 0.534 0.112 80.227 o
12 7 6 0.128 0.481 0.143 49.055 o
12 7 7 0.243 0.277 0.147 46.915 o
12 7 8 1.597 1.286 0.117 73.710 o
12 7 9 0.005 0.266 0.122 67.359 o
12 7 10 0.217 0.183 0.114 77.962 o
12 7 11 0.005 0.216 0.108 85.912 o
12 8 0 0.463 0.626 0.094 114.644 o
12 8 1 0.229 0.308 0.091 121.528 o
12 8 2 0.024 0.632 0.225 19.961 o
12 8 3 0.638 0.763 0.208 23.417 o
12 8 4 0.227 0.308 0.156 41.558 o
12 8 5 0.003 0.141 0.136 54.657 o
12 8 6 0.584 0.534 0.120 69.797 o
12 8 7 0.137 0.251 0.115 76.505 o
12 8 8 0.050 -0.065 0.303 10.950 o
12 9 0 0.000 0.116 0.109 85.064 o
12 9 1 1.166 1.059 0.191 27.698 o
12 9 2 0.635 0.364 0.183 30.203 o
13 0 1 0.201 0.250 0.095 112.053 o
13 0 2 2.179 2.168 0.111 81.793 o
13 0 3 0.096 0.107 0.082 150.232 o
13 0 4 4.862 5.156 0.244 16.989 o
13 0 5 1.526 1.595 0.109 85.064 o
13 0 6 0.030 0.157 0.147 46.572 o
13 0 7 0.001 0.038 0.111 81.793 o
13 0 8 2.001 2.106 0.179 31.490 o
13 0 9 5.261 5.129 0.223 20.349 o
13 0 10 0.288 0.235 0.107 87.648 o
13 0 11 0.258 0.437 0.094 113.337 o
13 0 12 0.001 0.205 0.102 96.148 o
13 0 13 0.765 0.987 0.111 82.593 o
13 0 14 0.001 0.118 0.111 82.593 o
13 0 15 0.192 0.310 0.117 73.710 o
13 1 0 5.481 5.730 0.210 22.938 o
13 1 1 1.152 1.290 0.125 65.047 o
13 1 2 2.503 2.435 0.131 58.781 o
13 1 3 0.826 0.979 0.101 98.205 o
13 1 4 1.403 1.494 0.097 107.128 o
13 1 5 0.449 0.519 0.105 91.281 o
13 1 6 3.508 3.324 0.205 23.911 o
13 1 7 1.019 1.015 0.096 109.549 o
13 1 8 0.323 0.270 0.105 91.281 o
13 1 9 0.434 0.341 0.128 61.277 o
13 1 10 0.430 0.516 0.234 18.343 o
13 1 11 0.681 0.740 0.213 22.246 o
13 1 12 0.161 0.375 0.135 55.094 o
13 1 13 0.852 0.827 0.172 33.896 o
13 1 14 0.100 0.300 0.146 47.612 o
13 1 15 0.186 0.270 0.133 56.892 o
13 2 0 1.448 1.521 0.107 88.536 o
13 2 1 0.449 0.497 0.089 125.960 o
13 2 2 6.937 6.854 0.295 11.600 o
13 2 3 1.757 1.660 0.171 34.541 o
13 2 4 2.139 2.025 0.106 90.352 o
13 2 5 0.584 0.659 0.092 118.702 o
13 2 6 0.532 0.648 0.083 146.355 o
13 2 7 0.493 0.710 0.090 124.456 o
13 2 8 0.899 0.698 0.170 34.981 o
13 2 9 0.439 0.508 0.245 16.840 o
13 2 10 0.303 0.490 0.183 30.203 o
13 2 11 0.972 0.899 0.162 38.566 o
13 2 12 0.262 0.231 0.159 39.885 o
13 2 13 0.613 0.660 0.152 43.647 o
13 2 14 0.083 0.135 0.522 3.697 o
13 3 0 5.717 5.718 0.236 18.093 o
13 3 1 0.153 0.240 0.109 85.064 o
13 3 2 0.477 0.379 0.147 46.572 o
13 3 3 2.152 2.217 0.132 57.825 o
13 3 4 2.291 2.265 0.119 71.066 o
13 3 5 0.040 0.059 0.084 144.473 o
13 3 6 1.853 1.748 0.157 40.989 o
13 3 7 2.006 1.895 0.201 24.948 o
13 3 8 0.047 0.076 0.126 63.389 o
13 3 9 0.425 0.582 0.136 54.657 o
13 3 10 0.896 0.789 0.170 34.981 o
13 3 11 0.489 0.648 0.141 50.565 o
13 3 12 0.308 0.537 0.139 52.145 o
13 3 13 0.514 0.403 0.231 18.860 o
13 3 14 0.513 0.444 0.282 12.641 o
13 4 0 0.369 0.315 0.099 103.645 o
13 4 1 1.151 1.318 0.194 26.782 o
13 4 2 0.820 0.758 0.135 55.535 o
13 4 3 1.152 1.208 0.118 73.036 o
13 4 4 2.163 1.901 0.165 37.069 o
13 4 5 2.407 2.221 0.173 33.685 o
13 4 6 0.207 0.134 0.116 74.394 o
13 4 7 1.198 1.186 0.131 58.781 o
13 4 8 2.431 2.438 0.208 23.417 o
13 4 9 0.389 0.583 0.124 65.614 o
13 4 10 1.135 1.099 0.190 27.855 o
13 4 11 1.446 1.221 0.219 21.057 o
13 4 12 0.213 0.122 0.139 52.551 o
13 4 13 0.642 0.452 0.308 10.609 o
13 5 0 0.054 0.426 0.111 82.593 o
13 5 1 0.020 0.160 0.106 89.437 o
13 5 2 0.946 0.782 0.119 71.714 o
13 5 3 0.628 0.718 0.186 29.162 o
13 5 4 0.024 0.197 0.179 31.490 o
13 5 5 0.614 0.530 0.155 42.139 o
13 5 6 1.883 1.782 0.188 28.661 o
13 5 7 1.022 1.062 0.151 44.272 o
13 5 8 0.824 0.685 0.160 39.349 o
13 5 9 3.009 2.830 0.205 24.037 o
13 5 10 0.485 0.675 0.212 22.473 o
13 5 11 0.014 -0.023 0.305 10.835 o
13 6 0 0.179 0.128 0.170 34.760 o
13 6 1 1.947 2.148 0.178 31.873 o
13 6 2 0.516 0.153 0.283 12.593 o
13 6 3 0.817 0.875 0.185 29.503 o
13 6 4 0.742 0.816 0.161 38.825 o
13 6 5 0.972 1.026 0.256 15.449 o
13 6 6 0.330 0.471 0.224 20.057 o
13 6 7 0.946 0.641 0.173 33.685 o
13 6 8 0.825 0.586 0.156 41.558 o
13 6 9 0.181 0.107 0.137 53.800 o
13 7 0 0.916 1.134 0.151 43.958 o
13 7 1 1.159 1.069 0.195 26.487 o
13 7 2 0.187 0.520 0.186 29.162 o
13 7 3 1.266 1.170 0.194 26.782 o
13 7 4 0.524 0.434 0.166 36.589 o
13 7 5 0.088 0.094 0.155 42.139 o
14 0 0 2.084 2.449 0.231 18.948 o
14 0 1 0.530 0.436 0.154 42.733 o
14 0 2 0.172 0.344 0.111 81.793 o
14 0 3 1.243 1.156 0.136 54.226 o
14 0 4 0.946 1.131 0.114 77.962 o
14 0 5 0.520 0.828 0.113 78.706 o
14 0 6 0.246 0.308 0.114 77.228 o
14 0 7 0.070 0.241 0.106 89.437 o
14 0 8 0.530 0.624 0.114 77.962 o
14 0 9 0.425 0.216 0.107 88.536 o
14 0 10 0.082 0.195 0.112 80.227 o
14 1 0 0.934 0.746 0.121 69.175 o
14 1 1 1.262 1.330 0.137 53.800 o
14 1 2 1.221 1.269 0.128 61.795 o
14 1 3 0.783 0.713 0.156 41.558 o
14 1 4 0.746 0.738 0.209 23.175 o
14 1 5 0.344 0.589 0.148 46.233 o
14 1 6 1.329 1.281 0.111 82.593 o
14 1 7 1.985 1.791 0.205 24.037 o
14 1 8 0.028 0.156 0.114 77.228 o
14 1 9 0.507 0.619 0.127 62.320 o
14 1 10 0.725 0.755 0.140 51.743 o
14 2 0 0.001 0.006 0.103 94.156 o
14 2 1 0.849 0.922 0.165 36.828 o
14 2 2 0.020 0.209 0.112 81.004 o
14 2 3 0.889 1.046 0.134 55.982 o
14 2 4 0.634 0.674 0.142 50.181 o
14 2 5 2.737 2.582 0.303 10.950 o
14 2 6 0.246 0.144 0.144 48.688 o
14 2 7 0.200 0.316 0.172 33.896 o
14 2 8 0.086 0.139 0.107 87.648 o
14 2 9 2.433 2.225 0.163 38.057 o
14 3 0 3.827 3.668 0.220 20.749 o
14 3 1 0.385 0.552 0.127 62.851 o
14 3 2 0.580 0.446 0.107 87.648 o
14 3 3 0.851 1.133 0.114 77.962 o
14 3 4 1.035 1.069 0.115 76.505 o
14 3 5 0.386 0.493 0.127 62.320 o
14 3 6 0.429 0.454 0.130 59.761 o
14 3 7 1.724 1.843 0.129 60.765 o
14 3 8 1.229 1.116 0.211 22.704 o
14 4 0 0.949 1.214 0.211 22.704 o
14 4 1 0.025 0.149 0.100 100.328 o
14 4 2 2.808 2.724 0.282 12.641 o
14 4 3 0.155 0.298 0.129 60.260 o
14 4 4 1.157 1.169 0.121 69.175 o
14 4 5 0.266 0.431 0.110 83.404 o
14 4 6 0.553 0.472 0.284 12.545 o
14 5 0 0.732 0.824 0.128 61.277 o
14 5 1 0.090 0.372 0.125 65.047 o
14 5 2 1.233 1.295 0.116 74.394 o
14 5 3 0.037 -0.054 0.295 11.600 o
;
_iucr_refine_instructions_details
;
TITL exp_23_a.res in P2(1)2(1)2(1)
REM Old TITL exp_23 in P2(1)2(1)2(1)
REM SHELXT solution in P2(1)2(1)2(1): R1 0.105, Rweak 0.043, Alpha 0.006
REM <I/s> 1.288 for 12 systematic absences, Orientation as input
REM Flack x = 0.204 ( 0.723 ) from 298 Parsons' quotients
REM Formula found by SHELXT: C3 N O2
CELL 0.2481 5.803021 6.003826 12.332995 90 90 90
ZERR 4 0.000272 0.000267 0.000503 0 0 0
LATT -1
SYMM 0.5-X,-Y,0.5+Z
SYMM -X,0.5+Y,0.5-Z
SYMM 0.5+X,0.5-Y,-Z
SFAC C H N O
DISP C -0.0022 0.0001 3.7384
DISP H 0 0 0.562
DISP N -0.0036 0.0003 4.6161
DISP O -0.0047 0.0006 5.6815
UNIT 22 20 2 2

L.S. 20
PLAN  5
TEMP 200
CONF
BOND
list 4
MORE -1
BOND $H
fmap 2 53
acta
WGHT 0
FVAR 4.307107
REM <olex2.extras>
REM <HklSrc "%.\\lalanine8_200k.hkl">
REM </olex2.extras>

O001  4     0.238815  0.553363  0.684551  11.00000  0.01158  0.03026 =
 0.02666 -0.00703  0.00146  0.00069
O002  4     0.373570  0.271990  0.584169  11.00000  0.01757  0.02785 =
 0.02363 -0.00833 -0.00190 -0.00338
N003  3     0.815387  0.348007  0.637904  11.00000  0.01180  0.02162 =
 0.01886 -0.00093 -0.00005  0.00073
H00a  2     0.797604  0.297961  0.559587  11.00000  0.03444  0.03383 =
 0.02985 -0.00760 -0.00218  0.00617
H00b  2     0.980711  0.412804  0.649369  11.00000  0.02697  0.04675 =
 0.02569 -0.00167 -0.00166  0.00986
H00c  2     0.786126  0.221658  0.690239  11.00000  0.02633  0.03276 =
 0.04561  0.00214  0.00292 -0.00205
C004  1     0.399007  0.441957  0.641148  11.00000  0.01080  0.02119 =
 0.01433 -0.00077 -0.00007 -0.00133
C005  1     0.644916  0.527560  0.661276  11.00000  0.01100  0.02009 =
 0.01512 -0.00163 -0.00014 -0.00135
H005  2     0.659684  0.566212  0.746924  11.00000  0.02447  0.04128 =
 0.01833 -0.00664  0.00398 -0.00105
C006  1     0.696698  0.731300  0.591302  11.00000  0.01781  0.02265 =
 0.02946  0.00463  0.00089 -0.00231
H00d  2     0.867692  0.794361  0.608059  11.00000  0.03756  0.04129 =
 0.07312  0.01225 -0.00941 -0.02020
H00e  2     0.694686  0.684755  0.507733  11.00000  0.04370  0.04728 =
 0.03885  0.00093  0.00682 -0.00463
H00f  2     0.569240  0.862615  0.603854  11.00000  0.04940  0.03110 =
 0.05501  0.00204  0.00356  0.00924
HKLF 4

END
Q3 1 0.7 0.458333 0.666667 11 0.05 0.18
Q1 1 0.4 0.333333 0.566667 11 0.05 0.34
Q2 1 0.25 0.5 0.655556 11 0.05 0.2
Q5 1 0.4 0.375 0.666667 11 0.05 0.15
Q4 1 0.8 0.25 0.633333 11 0.05 0.18

  REM The information below was added by Olex2.
  REM
  REM R1 = 0.0284 for 6710 Fo > 4sig(Fo) and 0.0343 for all 7591 data
  REM 118 parameters refined using 0 restraints
  REM Highest difference peak 0.3403, deepest hole -0.1721
  REM Mean Shift 0.0001, Max Shift -0.0004.

  REM +++ Tabular Listing of Refinement Information +++
  REM R1_all = 0.0343
  REM R1_gt = 0.0284
  REM wR_ref = 0.0598
  REM GOOF = 1.1720
  REM Shift_max = -0.0004
  REM Shift_mean = 0.0001
  REM Reflections_all = 7591
  REM Reflections_gt = 6710
  REM Parameters = 118
  REM Hole = -0.1721
  REM Peak = 0.3403
  REM Flack = -1.9(15)

  
;
_olex2_submission_special_instructions  'No special instructions were received'
